 xtb: 6.7.1 (edcfbbe)
          10212513363D

116116  0     0  0            999 V2000
    1.9481    3.6555    7.0500 C   0  0  0  0  0  0  0  0  0  0  0  0
    0.6681    4.9703   10.9813 C   0  0  0  0  0  0  0  0  0  0  0  0
    1.9040    2.4190    6.5470 F   0  0  0  0  0  0  0  0  0  0  0  0
    0.7138    4.1445    7.0433 F   0  0  0  0  0  0  0  0  0  0  0  0
    2.6785    4.3933    6.1996 F   0  0  0  0  0  0  0  0  0  0  0  0
    0.6231    3.8993   11.7545 F   0  0  0  0  0  0  0  0  0  0  0  0
    0.0388    5.9554   11.6340 F   0  0  0  0  0  0  0  0  0  0  0  0
   -0.0235    4.7418    9.8663 F   0  0  0  0  0  0  0  0  0  0  0  0
    2.7709    3.6908    8.7467 S   0  0  0  0  0  0  0  0  0  0  0  0
    2.4244    5.5328   10.5786 S   0  0  0  0  0  0  0  0  0  0  0  0
    2.6533    5.2477    9.0423 N   0  0  0  0  0  0  0  0  0  0  0  0
    1.9741    2.8908    9.6125 O   0  0  0  0  0  0  0  0  0  0  0  0
    4.1059    3.2760    8.4406 O   0  0  0  0  0  0  0  0  0  0  0  0
    3.3167    4.8005   11.4258 O   0  0  0  0  0  0  0  0  0  0  0  0
    2.4149    6.9565   10.7888 O   0  0  0  0  0  0  0  0  0  0  0  0
   12.1780    7.0219    4.9240 C   0  0  0  0  0  0  0  0  0  0  0  0
    7.9793    9.4728    4.4606 C   0  0  0  0  0  0  0  0  0  0  0  0
   12.8069    6.5694    3.8372 F   0  0  0  0  0  0  0  0  0  0  0  0
   13.0904    7.4572    5.7819 F   0  0  0  0  0  0  0  0  0  0  0  0
   11.5664    5.9702    5.4860 F   0  0  0  0  0  0  0  0  0  0  0  0
    7.1183   10.2949    5.0651 F   0  0  0  0  0  0  0  0  0  0  0  0
    8.9613   10.2231    3.9795 F   0  0  0  0  0  0  0  0  0  0  0  0
    7.3315    8.9109    3.4371 F   0  0  0  0  0  0  0  0  0  0  0  0
   10.9311    8.3714    4.4897 S   0  0  0  0  0  0  0  0  0  0  0  0
    8.6094    8.1792    5.6980 S   0  0  0  0  0  0  0  0  0  0  0  0
   10.1237    8.4942    5.8546 N   0  0  0  0  0  0  0  0  0  0  0  0
   11.7428    9.4945    4.1888 O   0  0  0  0  0  0  0  0  0  0  0  0
   10.1048    7.8105    3.4547 O   0  0  0  0  0  0  0  0  0  0  0  0
    8.2843    6.8928    5.1218 O   0  0  0  0  0  0  0  0  0  0  0  0
    7.8623    8.4595    6.8939 O   0  0  0  0  0  0  0  0  0  0  0  0
    0.1212   10.0738    3.2162 C   0  0  0  0  0  0  0  0  0  0  0  0
    1.2956   10.1714    3.8278 C   0  0  0  0  0  0  0  0  0  0  0  0
   -0.5151   10.9329    3.0911 H   0  0  0  0  0  0  0  0  0  0  0  0
   -0.2565    9.1475    2.8199 H   0  0  0  0  0  0  0  0  0  0  0  0
    2.2513    9.0959    4.0602 C   0  0  0  0  0  0  0  0  0  0  0  0
    1.6116   11.1387    4.1997 H   0  0  0  0  0  0  0  0  0  0  0  0
    3.4644    9.3972    4.6789 C   0  0  0  0  0  0  0  0  0  0  0  0
    4.4129    8.4177    4.9037 C   0  0  0  0  0  0  0  0  0  0  0  0
    4.1794    7.1061    4.5169 C   0  0  0  0  0  0  0  0  0  0  0  0
    2.0180    7.7689    3.6900 C   0  0  0  0  0  0  0  0  0  0  0  0
    2.9658    6.7928    3.9141 C   0  0  0  0  0  0  0  0  0  0  0  0
    1.0845    7.4999    3.2224 H   0  0  0  0  0  0  0  0  0  0  0  0
    2.7795    5.7716    3.6230 H   0  0  0  0  0  0  0  0  0  0  0  0
    5.3477    8.6744    5.3811 H   0  0  0  0  0  0  0  0  0  0  0  0
    3.6699   10.4147    4.9778 H   0  0  0  0  0  0  0  0  0  0  0  0
    5.2264    6.0493    4.7264 C   0  0  0  0  0  0  0  0  0  0  0  0
    5.4616    5.3114    3.4839 N   0  0  0  0  0  0  0  0  0  0  0  0
    4.8639    5.3227    5.4590 H   0  0  0  0  0  0  0  0  0  0  0  0
    6.1496    6.5075    5.1022 H   0  0  0  0  0  0  0  0  0  0  0  0
    6.4362    4.2925    3.5803 C   0  0  0  0  0  0  0  0  0  0  0  0
    5.8677    6.1124    2.3409 C   0  0  0  0  0  0  0  0  0  0  0  0
    7.4017    5.9455    2.2004 C   0  0  0  0  0  0  0  0  0  0  0  0
    5.5779    7.1511    2.4822 H   0  0  0  0  0  0  0  0  0  0  0  0
    5.3621    5.7299    1.4496 H   0  0  0  0  0  0  0  0  0  0  0  0
    7.7690    4.9397    3.2240 N   0  0  0  0  0  0  0  0  0  0  0  0
    7.9419    6.8697    2.3903 H   0  0  0  0  0  0  0  0  0  0  0  0
    7.6606    5.5682    1.2121 H   0  0  0  0  0  0  0  0  0  0  0  0
    6.2585    3.5286    2.8133 H   0  0  0  0  0  0  0  0  0  0  0  0
    6.4779    3.8332    4.5688 H   0  0  0  0  0  0  0  0  0  0  0  0
    8.7752    3.9425    2.8173 C   0  0  0  0  0  0  0  0  0  0  0  0
   10.1974    4.4907    2.7454 C   0  0  0  0  0  0  0  0  0  0  0  0
    8.4687    3.5237    1.8557 H   0  0  0  0  0  0  0  0  0  0  0  0
    8.7465    3.1445    3.5633 H   0  0  0  0  0  0  0  0  0  0  0  0
   10.5616    5.2948    1.4952 C   0  0  0  0  0  0  0  0  0  0  0  0
   10.8754    3.6380    2.8144 H   0  0  0  0  0  0  0  0  0  0  0  0
   10.3587    5.1200    3.6192 H   0  0  0  0  0  0  0  0  0  0  0  0
   10.3880    4.5212    0.1923 C   0  0  0  0  0  0  0  0  0  0  0  0
   11.6111    5.5740    1.5938 H   0  0  0  0  0  0  0  0  0  0  0  0
    9.9985    6.2258    1.4702 H   0  0  0  0  0  0  0  0  0  0  0  0
    9.3430    4.3197   -0.0343 H   0  0  0  0  0  0  0  0  0  0  0  0
   10.9167    3.5719    0.2386 H   0  0  0  0  0  0  0  0  0  0  0  0
   10.7966    5.0965   -0.6337 H   0  0  0  0  0  0  0  0  0  0  0  0
    8.1119    5.4766    4.0440 H   0  0  0  0  0  0  0  0  0  0  0  0
    8.2008    0.0623    4.5436 C   0  0  0  0  0  0  0  0  0  0  0  0
    9.0182    0.9772    5.0519 C   0  0  0  0  0  0  0  0  0  0  0  0
    8.5753   -0.7565    3.9541 H   0  0  0  0  0  0  0  0  0  0  0  0
    7.1360    0.0843    4.6998 H   0  0  0  0  0  0  0  0  0  0  0  0
    8.6349    2.1248    5.8685 C   0  0  0  0  0  0  0  0  0  0  0  0
   10.0805    0.9024    4.8512 H   0  0  0  0  0  0  0  0  0  0  0  0
    9.5796    3.1247    6.1197 C   0  0  0  0  0  0  0  0  0  0  0  0
    9.2572    4.2288    6.8808 C   0  0  0  0  0  0  0  0  0  0  0  0
    7.9843    4.3664    7.4226 C   0  0  0  0  0  0  0  0  0  0  0  0
    7.3619    2.2728    6.4225 C   0  0  0  0  0  0  0  0  0  0  0  0
    7.0378    3.3771    7.1908 C   0  0  0  0  0  0  0  0  0  0  0  0
    6.6167    1.5063    6.2790 H   0  0  0  0  0  0  0  0  0  0  0  0
    6.0572    3.4589    7.6339 H   0  0  0  0  0  0  0  0  0  0  0  0
    9.9988    4.9900    7.0656 H   0  0  0  0  0  0  0  0  0  0  0  0
   10.5780    3.0301    5.7173 H   0  0  0  0  0  0  0  0  0  0  0  0
    7.6801    5.5862    8.2564 C   0  0  0  0  0  0  0  0  0  0  0  0
    6.3183    5.5792    8.7624 N   0  0  0  0  0  0  0  0  0  0  0  0
    7.8652    6.4691    7.6387 H   0  0  0  0  0  0  0  0  0  0  0  0
    8.3979    5.6224    9.0841 H   0  0  0  0  0  0  0  0  0  0  0  0
    5.4527    6.6116    8.3548 C   0  0  0  0  0  0  0  0  0  0  0  0
    6.1555    5.5235   10.1948 C   0  0  0  0  0  0  0  0  0  0  0  0
    5.9861    7.0046   10.6360 C   0  0  0  0  0  0  0  0  0  0  0  0
    7.0031    5.0350   10.6702 H   0  0  0  0  0  0  0  0  0  0  0  0
    5.2497    4.9620   10.4356 H   0  0  0  0  0  0  0  0  0  0  0  0
    5.6770    7.7407    9.3840 N   0  0  0  0  0  0  0  0  0  0  0  0
    6.8870    7.4054   11.0998 H   0  0  0  0  0  0  0  0  0  0  0  0
    5.1426    7.0895   11.3204 H   0  0  0  0  0  0  0  0  0  0  0  0
    4.4060    6.2975    8.4575 H   0  0  0  0  0  0  0  0  0  0  0  0
    5.6696    6.9770    7.3537 H   0  0  0  0  0  0  0  0  0  0  0  0
    4.5631    8.6986    9.5446 C   0  0  0  0  0  0  0  0  0  0  0  0
    4.2926    9.5279    8.2967 C   0  0  0  0  0  0  0  0  0  0  0  0
    4.8147    9.3617   10.3749 H   0  0  0  0  0  0  0  0  0  0  0  0
    3.6702    8.1292    9.8209 H   0  0  0  0  0  0  0  0  0  0  0  0
    5.4407   10.4594    7.8964 C   0  0  0  0  0  0  0  0  0  0  0  0
    3.4072   10.1302    8.5074 H   0  0  0  0  0  0  0  0  0  0  0  0
    4.0424    8.8693    7.4653 H   0  0  0  0  0  0  0  0  0  0  0  0
    5.7576   11.5105    8.9556 C   0  0  0  0  0  0  0  0  0  0  0  0
    5.1494   10.9732    6.9800 H   0  0  0  0  0  0  0  0  0  0  0  0
    6.3408    9.8896    7.6600 H   0  0  0  0  0  0  0  0  0  0  0  0
    6.4622   12.2350    8.5570 H   0  0  0  0  0  0  0  0  0  0  0  0
    6.2033   11.0720    9.8451 H   0  0  0  0  0  0  0  0  0  0  0  0
    4.8536   12.0396    9.2495 H   0  0  0  0  0  0  0  0  0  0  0  0
    6.5007    8.2516    9.0461 H   0  0  0  0  0  0  0  0  0  0  0  0
  1  3  1  0  0  0  0
  1  4  1  0  0  0  0
  1  5  1  0  0  0  0
  2  6  1  0  0  0  0
  2  7  1  0  0  0  0
  2  8  1  0  0  0  0
  1  9  1  0  0  0  0
  2 10  1  0  0  0  0
  9 11  1  0  0  0  0
 10 11  1  0  0  0  0
  9 12  2  0  0  0  0
  9 13  2  0  0  0  0
 10 14  2  0  0  0  0
 10 15  2  0  0  0  0
 16 18  1  0  0  0  0
 16 19  1  0  0  0  0
 16 20  1  0  0  0  0
 17 21  1  0  0  0  0
 17 22  1  0  0  0  0
 17 23  1  0  0  0  0
 16 24  1  0  0  0  0
 17 25  1  0  0  0  0
 24 26  1  0  0  0  0
 25 26  1  0  0  0  0
 24 27  2  0  0  0  0
 24 28  2  0  0  0  0
 25 29  2  0  0  0  0
 25 30  2  0  0  0  0
 31 32  2  0  0  0  0
 31 33  1  0  0  0  0
 31 34  1  0  0  0  0
 32 35  1  0  0  0  0
 32 36  1  0  0  0  0
 35 37  4  0  0  0  0
 37 38  4  0  0  0  0
 38 39  4  0  0  0  0
 35 40  4  0  0  0  0
 39 41  4  0  0  0  0
 40 41  4  0  0  0  0
 40 42  1  0  0  0  0
 41 43  1  0  0  0  0
 38 44  1  0  0  0  0
 37 45  1  0  0  0  0
 39 46  1  0  0  0  0
 46 47  1  0  0  0  0
 46 48  1  0  0  0  0
 46 49  1  0  0  0  0
 47 50  1  0  0  0  0
 47 51  1  0  0  0  0
 51 52  1  0  0  0  0
 51 53  1  0  0  0  0
 51 54  1  0  0  0  0
 50 55  1  0  0  0  0
 52 55  1  0  0  0  0
 52 56  1  0  0  0  0
 52 57  1  0  0  0  0
 50 58  1  0  0  0  0
 50 59  1  0  0  0  0
 55 60  1  0  0  0  0
 60 61  1  0  0  0  0
 60 62  1  0  0  0  0
 60 63  1  0  0  0  0
 61 64  1  0  0  0  0
 61 65  1  0  0  0  0
 61 66  1  0  0  0  0
 64 67  1  0  0  0  0
 64 68  1  0  0  0  0
 64 69  1  0  0  0  0
 67 70  1  0  0  0  0
 67 71  1  0  0  0  0
 67 72  1  0  0  0  0
 55 73  1  0  0  0  0
 74 75  2  0  0  0  0
 74 76  1  0  0  0  0
 74 77  1  0  0  0  0
 75 78  1  0  0  0  0
 75 79  1  0  0  0  0
 78 80  4  0  0  0  0
 80 81  4  0  0  0  0
 81 82  4  0  0  0  0
 78 83  4  0  0  0  0
 82 84  4  0  0  0  0
 83 84  4  0  0  0  0
 83 85  1  0  0  0  0
 84 86  1  0  0  0  0
 81 87  1  0  0  0  0
 80 88  1  0  0  0  0
 82 89  1  0  0  0  0
 89 90  1  0  0  0  0
 89 91  1  0  0  0  0
 89 92  1  0  0  0  0
 90 93  1  0  0  0  0
 90 94  1  0  0  0  0
 94 95  1  0  0  0  0
 94 96  1  0  0  0  0
 94 97  1  0  0  0  0
 93 98  1  0  0  0  0
 95 98  1  0  0  0  0
 95 99  1  0  0  0  0
 95100  1  0  0  0  0
 93101  1  0  0  0  0
 93102  1  0  0  0  0
 98103  1  0  0  0  0
103104  1  0  0  0  0
103105  1  0  0  0  0
103106  1  0  0  0  0
104107  1  0  0  0  0
104108  1  0  0  0  0
104109  1  0  0  0  0
107110  1  0  0  0  0
107111  1  0  0  0  0
107112  1  0  0  0  0
110113  1  0  0  0  0
110114  1  0  0  0  0
110115  1  0  0  0  0
 98116  1  0  0  0  0
M  END
