 xtb: 6.7.1 (edcfbbe)
          10212513323D

116116  0     0  0            999 V2000
    2.4917   10.8103    1.7640 C   0  0  0  0  0  0  0  0  0  0  0  0
    5.6661    8.7326    5.1017 C   0  0  0  0  0  0  0  0  0  0  0  0
    2.4174   11.5415    2.8735 F   0  0  0  0  0  0  0  0  0  0  0  0
    2.3925   11.6385    0.7223 F   0  0  0  0  0  0  0  0  0  0  0  0
    1.4171   10.0155    1.7376 F   0  0  0  0  0  0  0  0  0  0  0  0
    4.9800    9.8339    5.4225 F   0  0  0  0  0  0  0  0  0  0  0  0
    5.4349    7.8565    6.0795 F   0  0  0  0  0  0  0  0  0  0  0  0
    6.9506    9.0533    5.1039 F   0  0  0  0  0  0  0  0  0  0  0  0
    4.0861    9.8055    1.7122 S   0  0  0  0  0  0  0  0  0  0  0  0
    5.0665    8.0811    3.4354 S   0  0  0  0  0  0  0  0  0  0  0  0
    3.8978    9.0686    3.1130 N   0  0  0  0  0  0  0  0  0  0  0  0
    3.9163    8.9066    0.6082 O   0  0  0  0  0  0  0  0  0  0  0  0
    5.1323   10.7658    1.6587 O   0  0  0  0  0  0  0  0  0  0  0  0
    4.5988    6.7345    3.7073 O   0  0  0  0  0  0  0  0  0  0  0  0
    6.1580    8.1423    2.5148 O   0  0  0  0  0  0  0  0  0  0  0  0
    9.9409    3.4647    8.2221 C   0  0  0  0  0  0  0  0  0  0  0  0
    8.8913    7.4581    7.1442 C   0  0  0  0  0  0  0  0  0  0  0  0
   10.9340    4.2971    7.9496 F   0  0  0  0  0  0  0  0  0  0  0  0
    9.4333    3.8162    9.4207 F   0  0  0  0  0  0  0  0  0  0  0  0
   10.4458    2.2372    8.3625 F   0  0  0  0  0  0  0  0  0  0  0  0
    9.6661    7.0433    8.1540 F   0  0  0  0  0  0  0  0  0  0  0  0
    9.4733    8.5136    6.5922 F   0  0  0  0  0  0  0  0  0  0  0  0
    7.7381    7.8566    7.6926 F   0  0  0  0  0  0  0  0  0  0  0  0
    8.4910    3.5141    7.0111 S   0  0  0  0  0  0  0  0  0  0  0  0
    8.6239    6.0097    5.9718 S   0  0  0  0  0  0  0  0  0  0  0  0
    8.0535    5.0150    7.0740 N   0  0  0  0  0  0  0  0  0  0  0  0
    8.9234    3.0046    5.7543 O   0  0  0  0  0  0  0  0  0  0  0  0
    7.5306    2.7146    7.7416 O   0  0  0  0  0  0  0  0  0  0  0  0
    9.9109    5.6646    5.4748 O   0  0  0  0  0  0  0  0  0  0  0  0
    7.6141    6.4201    5.0417 O   0  0  0  0  0  0  0  0  0  0  0  0
   -0.3663    6.2901    9.1350 C   0  0  0  0  0  0  0  0  0  0  0  0
   -0.2224    4.9887    9.3553 C   0  0  0  0  0  0  0  0  0  0  0  0
   -1.1584    6.6675    8.5122 H   0  0  0  0  0  0  0  0  0  0  0  0
    0.2947    7.0298    9.5532 H   0  0  0  0  0  0  0  0  0  0  0  0
    0.8127    4.3618   10.1678 C   0  0  0  0  0  0  0  0  0  0  0  0
   -0.9085    4.2943    8.8865 H   0  0  0  0  0  0  0  0  0  0  0  0
    0.9809    2.9768   10.1091 C   0  0  0  0  0  0  0  0  0  0  0  0
    1.9629    2.3406   10.8442 C   0  0  0  0  0  0  0  0  0  0  0  0
    2.8169    3.0652   11.6688 C   0  0  0  0  0  0  0  0  0  0  0  0
    1.6494    5.0835   11.0220 C   0  0  0  0  0  0  0  0  0  0  0  0
    2.6348    4.4466   11.7529 C   0  0  0  0  0  0  0  0  0  0  0  0
    1.5210    6.1487   11.1275 H   0  0  0  0  0  0  0  0  0  0  0  0
    3.2479    5.0268   12.4303 H   0  0  0  0  0  0  0  0  0  0  0  0
    2.0545    1.2656   10.7893 H   0  0  0  0  0  0  0  0  0  0  0  0
    0.3282    2.3918    9.4778 H   0  0  0  0  0  0  0  0  0  0  0  0
    3.9366    2.3867   12.4209 C   0  0  0  0  0  0  0  0  0  0  0  0
    5.2144    2.3153   11.7100 N   0  0  0  0  0  0  0  0  0  0  0  0
    3.6566    1.3586   12.6588 H   0  0  0  0  0  0  0  0  0  0  0  0
    4.1269    2.9076   13.3622 H   0  0  0  0  0  0  0  0  0  0  0  0
    5.8189    3.5558   11.3795 C   0  0  0  0  0  0  0  0  0  0  0  0
    5.2004    1.6093   10.4400 C   0  0  0  0  0  0  0  0  0  0  0  0
    4.9946    2.6911    9.3511 C   0  0  0  0  0  0  0  0  0  0  0  0
    4.4288    0.8436   10.4272 H   0  0  0  0  0  0  0  0  0  0  0  0
    6.1721    1.1315   10.3012 H   0  0  0  0  0  0  0  0  0  0  0  0
    5.1855    3.9769   10.0685 N   0  0  0  0  0  0  0  0  0  0  0  0
    3.9988    2.6513    8.9131 H   0  0  0  0  0  0  0  0  0  0  0  0
    5.7590    2.6039    8.5759 H   0  0  0  0  0  0  0  0  0  0  0  0
    6.8849    3.4118   11.1750 H   0  0  0  0  0  0  0  0  0  0  0  0
    5.6811    4.3168   12.1471 H   0  0  0  0  0  0  0  0  0  0  0  0
    5.9350    5.0064    9.3204 C   0  0  0  0  0  0  0  0  0  0  0  0
    5.1619    5.4701    8.0957 C   0  0  0  0  0  0  0  0  0  0  0  0
    6.8831    4.5842    8.9864 H   0  0  0  0  0  0  0  0  0  0  0  0
    6.1284    5.8426    9.9927 H   0  0  0  0  0  0  0  0  0  0  0  0
    3.8211    6.1443    8.3838 C   0  0  0  0  0  0  0  0  0  0  0  0
    5.0151    4.6239    7.4283 H   0  0  0  0  0  0  0  0  0  0  0  0
    5.8064    6.1652    7.5662 H   0  0  0  0  0  0  0  0  0  0  0  0
    3.9539    7.3755    9.2725 C   0  0  0  0  0  0  0  0  0  0  0  0
    3.1084    5.4389    8.8260 H   0  0  0  0  0  0  0  0  0  0  0  0
    3.4072    6.4559    7.4248 H   0  0  0  0  0  0  0  0  0  0  0  0
    3.0145    7.9206    9.3006 H   0  0  0  0  0  0  0  0  0  0  0  0
    4.7159    8.0344    8.8680 H   0  0  0  0  0  0  0  0  0  0  0  0
    4.2220    7.1186   10.2960 H   0  0  0  0  0  0  0  0  0  0  0  0
    4.2566    4.3650   10.2943 H   0  0  0  0  0  0  0  0  0  0  0  0
    1.5249    8.1227    6.2393 C   0  0  0  0  0  0  0  0  0  0  0  0
    1.1666    6.9081    5.8402 C   0  0  0  0  0  0  0  0  0  0  0  0
    1.3397    8.4619    7.2447 H   0  0  0  0  0  0  0  0  0  0  0  0
    2.0275    8.8148    5.5853 H   0  0  0  0  0  0  0  0  0  0  0  0
    1.3974    6.3724    4.5037 C   0  0  0  0  0  0  0  0  0  0  0  0
    0.7036    6.2246    6.5444 H   0  0  0  0  0  0  0  0  0  0  0  0
    1.6105    7.2030    3.4054 C   0  0  0  0  0  0  0  0  0  0  0  0
    1.9096    6.6779    2.1653 C   0  0  0  0  0  0  0  0  0  0  0  0
    1.9983    5.3025    1.9794 C   0  0  0  0  0  0  0  0  0  0  0  0
    1.4120    4.9942    4.2986 C   0  0  0  0  0  0  0  0  0  0  0  0
    1.7108    4.4694    3.0561 C   0  0  0  0  0  0  0  0  0  0  0  0
    1.2099    4.3287    5.1269 H   0  0  0  0  0  0  0  0  0  0  0  0
    1.7136    3.3954    2.9207 H   0  0  0  0  0  0  0  0  0  0  0  0
    2.0758    7.3536    1.3407 H   0  0  0  0  0  0  0  0  0  0  0  0
    1.5447    8.2700    3.5181 H   0  0  0  0  0  0  0  0  0  0  0  0
    2.3862    4.7173    0.6442 C   0  0  0  0  0  0  0  0  0  0  0  0
    3.8163    4.6333    0.3590 N   0  0  0  0  0  0  0  0  0  0  0  0
    1.9515    5.3077   -0.1636 H   0  0  0  0  0  0  0  0  0  0  0  0
    1.9962    3.6965    0.5648 H   0  0  0  0  0  0  0  0  0  0  0  0
    4.6512    3.9695    1.3177 C   0  0  0  0  0  0  0  0  0  0  0  0
    4.4902    5.8723   -0.0335 C   0  0  0  0  0  0  0  0  0  0  0  0
    5.8375    5.8373    0.6867 C   0  0  0  0  0  0  0  0  0  0  0  0
    3.9320    6.7634    0.2598 H   0  0  0  0  0  0  0  0  0  0  0  0
    4.6201    5.8902   -1.1193 H   0  0  0  0  0  0  0  0  0  0  0  0
    5.5772    4.9970    1.8769 N   0  0  0  0  0  0  0  0  0  0  0  0
    6.1802    6.8291    0.9786 H   0  0  0  0  0  0  0  0  0  0  0  0
    6.5952    5.3401    0.0757 H   0  0  0  0  0  0  0  0  0  0  0  0
    5.2813    3.2269    0.8035 H   0  0  0  0  0  0  0  0  0  0  0  0
    4.0696    3.4840    2.0997 H   0  0  0  0  0  0  0  0  0  0  0  0
    6.8222    4.4944    2.5035 C   0  0  0  0  0  0  0  0  0  0  0  0
    6.6595    3.3254    3.4726 C   0  0  0  0  0  0  0  0  0  0  0  0
    7.2794    5.3326    3.0346 H   0  0  0  0  0  0  0  0  0  0  0  0
    7.4886    4.1777    1.6953 H   0  0  0  0  0  0  0  0  0  0  0  0
    5.9627    3.6429    4.7974 C   0  0  0  0  0  0  0  0  0  0  0  0
    7.6760    3.0168    3.7263 H   0  0  0  0  0  0  0  0  0  0  0  0
    6.1693    2.4809    2.9823 H   0  0  0  0  0  0  0  0  0  0  0  0
    4.4401    3.6108    4.7445 C   0  0  0  0  0  0  0  0  0  0  0  0
    6.2889    4.6237    5.1375 H   0  0  0  0  0  0  0  0  0  0  0  0
    6.3118    2.9111    5.5283 H   0  0  0  0  0  0  0  0  0  0  0  0
    4.0856    2.7165    4.2332 H   0  0  0  0  0  0  0  0  0  0  0  0
    4.0519    4.5015    4.2620 H   0  0  0  0  0  0  0  0  0  0  0  0
    4.0318    3.5901    5.7520 H   0  0  0  0  0  0  0  0  0  0  0  0
    5.0897    5.5951    2.5927 H   0  0  0  0  0  0  0  0  0  0  0  0
  1  3  1  0  0  0  0
  1  4  1  0  0  0  0
  1  5  1  0  0  0  0
  2  6  1  0  0  0  0
  2  7  1  0  0  0  0
  2  8  1  0  0  0  0
  1  9  1  0  0  0  0
  2 10  1  0  0  0  0
  9 11  1  0  0  0  0
 10 11  1  0  0  0  0
  9 12  2  0  0  0  0
  9 13  2  0  0  0  0
 10 14  2  0  0  0  0
 10 15  2  0  0  0  0
 16 18  1  0  0  0  0
 16 19  1  0  0  0  0
 16 20  1  0  0  0  0
 17 21  1  0  0  0  0
 17 22  1  0  0  0  0
 17 23  1  0  0  0  0
 16 24  1  0  0  0  0
 17 25  1  0  0  0  0
 24 26  1  0  0  0  0
 25 26  1  0  0  0  0
 24 27  2  0  0  0  0
 24 28  2  0  0  0  0
 25 29  2  0  0  0  0
 25 30  2  0  0  0  0
 31 32  2  0  0  0  0
 31 33  1  0  0  0  0
 31 34  1  0  0  0  0
 32 35  1  0  0  0  0
 32 36  1  0  0  0  0
 35 37  4  0  0  0  0
 37 38  4  0  0  0  0
 38 39  4  0  0  0  0
 35 40  4  0  0  0  0
 39 41  4  0  0  0  0
 40 41  4  0  0  0  0
 40 42  1  0  0  0  0
 41 43  1  0  0  0  0
 38 44  1  0  0  0  0
 37 45  1  0  0  0  0
 39 46  1  0  0  0  0
 46 47  1  0  0  0  0
 46 48  1  0  0  0  0
 46 49  1  0  0  0  0
 47 50  1  0  0  0  0
 47 51  1  0  0  0  0
 51 52  1  0  0  0  0
 51 53  1  0  0  0  0
 51 54  1  0  0  0  0
 50 55  1  0  0  0  0
 52 55  1  0  0  0  0
 52 56  1  0  0  0  0
 52 57  1  0  0  0  0
 50 58  1  0  0  0  0
 50 59  1  0  0  0  0
 55 60  1  0  0  0  0
 60 61  1  0  0  0  0
 60 62  1  0  0  0  0
 60 63  1  0  0  0  0
 61 64  1  0  0  0  0
 61 65  1  0  0  0  0
 61 66  1  0  0  0  0
 64 67  1  0  0  0  0
 64 68  1  0  0  0  0
 64 69  1  0  0  0  0
 67 70  1  0  0  0  0
 67 71  1  0  0  0  0
 67 72  1  0  0  0  0
 55 73  1  0  0  0  0
 74 75  2  0  0  0  0
 74 76  1  0  0  0  0
 74 77  1  0  0  0  0
 75 78  1  0  0  0  0
 75 79  1  0  0  0  0
 78 80  4  0  0  0  0
 80 81  4  0  0  0  0
 81 82  4  0  0  0  0
 78 83  4  0  0  0  0
 82 84  4  0  0  0  0
 83 84  4  0  0  0  0
 83 85  1  0  0  0  0
 84 86  1  0  0  0  0
 81 87  1  0  0  0  0
 80 88  1  0  0  0  0
 82 89  1  0  0  0  0
 89 90  1  0  0  0  0
 89 91  1  0  0  0  0
 89 92  1  0  0  0  0
 90 93  1  0  0  0  0
 90 94  1  0  0  0  0
 94 95  1  0  0  0  0
 94 96  1  0  0  0  0
 94 97  1  0  0  0  0
 93 98  1  0  0  0  0
 95 98  1  0  0  0  0
 95 99  1  0  0  0  0
 95100  1  0  0  0  0
 93101  1  0  0  0  0
 93102  1  0  0  0  0
 98103  1  0  0  0  0
103104  1  0  0  0  0
103105  1  0  0  0  0
103106  1  0  0  0  0
104107  1  0  0  0  0
104108  1  0  0  0  0
104109  1  0  0  0  0
107110  1  0  0  0  0
107111  1  0  0  0  0
107112  1  0  0  0  0
110113  1  0  0  0  0
110114  1  0  0  0  0
110115  1  0  0  0  0
 98116  1  0  0  0  0
M  END
