 xtb: 6.7.1 (edcfbbe)
          10212513443D

116116  0     0  0            999 V2000
    9.8579    9.4484    0.9985 C   0  0  0  0  0  0  0  0  0  0  0  0
   11.3153   10.0701    5.7515 C   0  0  0  0  0  0  0  0  0  0  0  0
    9.6524    8.2359    0.4522 F   0  0  0  0  0  0  0  0  0  0  0  0
    8.6847    9.8081    1.5432 F   0  0  0  0  0  0  0  0  0  0  0  0
   10.1160   10.2937    0.0101 F   0  0  0  0  0  0  0  0  0  0  0  0
   11.9666   11.1045    6.2674 F   0  0  0  0  0  0  0  0  0  0  0  0
   10.6831    9.4405    6.7547 F   0  0  0  0  0  0  0  0  0  0  0  0
   12.2207    9.2147    5.2696 F   0  0  0  0  0  0  0  0  0  0  0  0
   11.2351    9.3779    2.3067 S   0  0  0  0  0  0  0  0  0  0  0  0
   10.0695   10.5872    4.4251 S   0  0  0  0  0  0  0  0  0  0  0  0
   10.9507   10.6817    3.1321 N   0  0  0  0  0  0  0  0  0  0  0  0
   10.9502    8.1422    2.9900 O   0  0  0  0  0  0  0  0  0  0  0  0
   12.4352    9.4466    1.5488 O   0  0  0  0  0  0  0  0  0  0  0  0
    9.5825   11.8547    4.8489 O   0  0  0  0  0  0  0  0  0  0  0  0
    9.1181    9.4990    4.4446 O   0  0  0  0  0  0  0  0  0  0  0  0
    1.0359    0.6266    7.8290 C   0  0  0  0  0  0  0  0  0  0  0  0
    3.0556    4.6802    9.3977 C   0  0  0  0  0  0  0  0  0  0  0  0
    1.3791    0.8088    6.5449 F   0  0  0  0  0  0  0  0  0  0  0  0
    2.0656    0.0756    8.4617 F   0  0  0  0  0  0  0  0  0  0  0  0
    0.0506   -0.2790    7.8139 F   0  0  0  0  0  0  0  0  0  0  0  0
    2.0371    5.3040    8.7940 F   0  0  0  0  0  0  0  0  0  0  0  0
    3.0828    5.0955   10.6598 F   0  0  0  0  0  0  0  0  0  0  0  0
    4.1774    5.1254    8.8071 F   0  0  0  0  0  0  0  0  0  0  0  0
    0.4218    2.2353    8.6424 S   0  0  0  0  0  0  0  0  0  0  0  0
    2.9310    2.7928    9.2900 S   0  0  0  0  0  0  0  0  0  0  0  0
    1.4660    2.5201    9.7801 N   0  0  0  0  0  0  0  0  0  0  0  0
    0.4073    3.1735    7.5438 O   0  0  0  0  0  0  0  0  0  0  0  0
   -0.8580    1.9038    9.1717 O   0  0  0  0  0  0  0  0  0  0  0  0
    3.9487    2.3690   10.1924 O   0  0  0  0  0  0  0  0  0  0  0  0
    3.1228    2.5058    7.8979 O   0  0  0  0  0  0  0  0  0  0  0  0
    6.2827    1.7205    4.8391 C   0  0  0  0  0  0  0  0  0  0  0  0
    6.0388    2.7998    5.5695 C   0  0  0  0  0  0  0  0  0  0  0  0
    7.1965    1.1637    4.9482 H   0  0  0  0  0  0  0  0  0  0  0  0
    5.5822    1.3564    4.1052 H   0  0  0  0  0  0  0  0  0  0  0  0
    4.8087    3.5880    5.5176 C   0  0  0  0  0  0  0  0  0  0  0  0
    6.7612    3.1343    6.3034 H   0  0  0  0  0  0  0  0  0  0  0  0
    4.8246    4.9635    5.7365 C   0  0  0  0  0  0  0  0  0  0  0  0
    3.6522    5.6935    5.8058 C   0  0  0  0  0  0  0  0  0  0  0  0
    2.4224    5.0542    5.7254 C   0  0  0  0  0  0  0  0  0  0  0  0
    3.5777    2.9602    5.3611 C   0  0  0  0  0  0  0  0  0  0  0  0
    2.4015    3.6767    5.4900 C   0  0  0  0  0  0  0  0  0  0  0  0
    3.5380    1.8898    5.2556 H   0  0  0  0  0  0  0  0  0  0  0  0
    1.4857    3.1234    5.6361 H   0  0  0  0  0  0  0  0  0  0  0  0
    3.6935    6.7550    6.0033 H   0  0  0  0  0  0  0  0  0  0  0  0
    5.7672    5.4650    5.9064 H   0  0  0  0  0  0  0  0  0  0  0  0
    1.1326    5.7951    5.9810 C   0  0  0  0  0  0  0  0  0  0  0  0
    0.2570    5.9868    4.8250 N   0  0  0  0  0  0  0  0  0  0  0  0
    1.3424    6.7851    6.3873 H   0  0  0  0  0  0  0  0  0  0  0  0
    0.5705    5.2300    6.7280 H   0  0  0  0  0  0  0  0  0  0  0  0
   -0.3195    4.8200    4.2883 C   0  0  0  0  0  0  0  0  0  0  0  0
    0.8485    6.6568    3.6881 C   0  0  0  0  0  0  0  0  0  0  0  0
    1.3418    5.5254    2.7444 C   0  0  0  0  0  0  0  0  0  0  0  0
    1.6534    7.3172    4.0013 H   0  0  0  0  0  0  0  0  0  0  0  0
    0.0815    7.2545    3.1885 H   0  0  0  0  0  0  0  0  0  0  0  0
    0.7278    4.2936    3.2896 N   0  0  0  0  0  0  0  0  0  0  0  0
    2.4273    5.4382    2.7557 H   0  0  0  0  0  0  0  0  0  0  0  0
    1.0022    5.6898    1.7227 H   0  0  0  0  0  0  0  0  0  0  0  0
   -1.2142    5.0581    3.7024 H   0  0  0  0  0  0  0  0  0  0  0  0
   -0.5440    4.0781    5.0548 H   0  0  0  0  0  0  0  0  0  0  0  0
    0.2157    3.3353    2.3002 C   0  0  0  0  0  0  0  0  0  0  0  0
    1.3078    2.7954    1.3787 C   0  0  0  0  0  0  0  0  0  0  0  0
   -0.5534    3.8350    1.7049 H   0  0  0  0  0  0  0  0  0  0  0  0
   -0.2497    2.5121    2.8438 H   0  0  0  0  0  0  0  0  0  0  0  0
    2.4322    2.0440    2.0953 C   0  0  0  0  0  0  0  0  0  0  0  0
    1.7375    3.6115    0.7954 H   0  0  0  0  0  0  0  0  0  0  0  0
    0.8259    2.1145    0.6755 H   0  0  0  0  0  0  0  0  0  0  0  0
    1.9432    0.8300    2.8768 C   0  0  0  0  0  0  0  0  0  0  0  0
    2.9829    2.7141    2.7609 H   0  0  0  0  0  0  0  0  0  0  0  0
    3.1346    1.7093    1.3300 H   0  0  0  0  0  0  0  0  0  0  0  0
    1.3769    1.1084    3.7612 H   0  0  0  0  0  0  0  0  0  0  0  0
    2.7908    0.2388    3.2099 H   0  0  0  0  0  0  0  0  0  0  0  0
    1.3223    0.1977    2.2466 H   0  0  0  0  0  0  0  0  0  0  0  0
    1.4396    3.8277    3.9092 H   0  0  0  0  0  0  0  0  0  0  0  0
    9.0320    0.2504   11.0923 C   0  0  0  0  0  0  0  0  0  0  0  0
    8.1121    1.0156   10.5173 C   0  0  0  0  0  0  0  0  0  0  0  0
    8.7573   -0.5976   11.6951 H   0  0  0  0  0  0  0  0  0  0  0  0
   10.0891    0.4357   10.9991 H   0  0  0  0  0  0  0  0  0  0  0  0
    8.3591    2.1917    9.6920 C   0  0  0  0  0  0  0  0  0  0  0  0
    7.0632    0.7924   10.6663 H   0  0  0  0  0  0  0  0  0  0  0  0
    9.6302    2.5563    9.2399 C   0  0  0  0  0  0  0  0  0  0  0  0
    9.8137    3.6838    8.4662 C   0  0  0  0  0  0  0  0  0  0  0  0
    8.7297    4.4821    8.1138 C   0  0  0  0  0  0  0  0  0  0  0  0
    7.2755    2.9962    9.3353 C   0  0  0  0  0  0  0  0  0  0  0  0
    7.4623    4.1251    8.5593 C   0  0  0  0  0  0  0  0  0  0  0  0
    6.2798    2.7389    9.6677 H   0  0  0  0  0  0  0  0  0  0  0  0
    6.6057    4.7370    8.3149 H   0  0  0  0  0  0  0  0  0  0  0  0
   10.7998    3.9570    8.1223 H   0  0  0  0  0  0  0  0  0  0  0  0
   10.4852    1.9502    9.4954 H   0  0  0  0  0  0  0  0  0  0  0  0
    8.9223    5.7145    7.2723 C   0  0  0  0  0  0  0  0  0  0  0  0
    9.7368    5.4733    6.0766 N   0  0  0  0  0  0  0  0  0  0  0  0
    9.4567    6.4718    7.8542 H   0  0  0  0  0  0  0  0  0  0  0  0
    7.9293    6.1265    7.0303 H   0  0  0  0  0  0  0  0  0  0  0  0
    9.6831    6.5283    5.1328 C   0  0  0  0  0  0  0  0  0  0  0  0
    9.4133    4.2961    5.2951 C   0  0  0  0  0  0  0  0  0  0  0  0
    8.4174    4.7684    4.2018 C   0  0  0  0  0  0  0  0  0  0  0  0
    9.0058    3.5100    5.9279 H   0  0  0  0  0  0  0  0  0  0  0  0
   10.3316    3.9295    4.8323 H   0  0  0  0  0  0  0  0  0  0  0  0
    8.4104    6.2395    4.3325 N   0  0  0  0  0  0  0  0  0  0  0  0
    7.4225    4.3495    4.3503 H   0  0  0  0  0  0  0  0  0  0  0  0
    8.7725    4.5033    3.2068 H   0  0  0  0  0  0  0  0  0  0  0  0
   10.5163    6.5050    4.4259 H   0  0  0  0  0  0  0  0  0  0  0  0
    9.6185    7.5232    5.5685 H   0  0  0  0  0  0  0  0  0  0  0  0
    8.2344    7.0059    3.0881 C   0  0  0  0  0  0  0  0  0  0  0  0
    6.7617    7.1442    2.7234 C   0  0  0  0  0  0  0  0  0  0  0  0
    8.8140    6.5308    2.2979 H   0  0  0  0  0  0  0  0  0  0  0  0
    8.6536    7.9960    3.2725 H   0  0  0  0  0  0  0  0  0  0  0  0
    6.0255    8.0720    3.6924 C   0  0  0  0  0  0  0  0  0  0  0  0
    6.2746    6.1643    2.6845 H   0  0  0  0  0  0  0  0  0  0  0  0
    6.7135    7.5795    1.7255 H   0  0  0  0  0  0  0  0  0  0  0  0
    4.6214    8.3987    3.1996 C   0  0  0  0  0  0  0  0  0  0  0  0
    6.6037    8.9904    3.7995 H   0  0  0  0  0  0  0  0  0  0  0  0
    5.9417    7.6128    4.6813 H   0  0  0  0  0  0  0  0  0  0  0  0
    4.1131    9.0482    3.9069 H   0  0  0  0  0  0  0  0  0  0  0  0
    4.0360    7.4872    3.0794 H   0  0  0  0  0  0  0  0  0  0  0  0
    4.6655    8.9091    2.2417 H   0  0  0  0  0  0  0  0  0  0  0  0
    7.6440    6.5258    4.9486 H   0  0  0  0  0  0  0  0  0  0  0  0
  1  3  1  0  0  0  0
  1  4  1  0  0  0  0
  1  5  1  0  0  0  0
  2  6  1  0  0  0  0
  2  7  1  0  0  0  0
  2  8  1  0  0  0  0
  1  9  1  0  0  0  0
  2 10  1  0  0  0  0
  9 11  1  0  0  0  0
 10 11  1  0  0  0  0
  9 12  2  0  0  0  0
  9 13  2  0  0  0  0
 10 14  2  0  0  0  0
 10 15  2  0  0  0  0
 16 18  1  0  0  0  0
 16 19  1  0  0  0  0
 16 20  1  0  0  0  0
 17 21  1  0  0  0  0
 17 22  1  0  0  0  0
 17 23  1  0  0  0  0
 16 24  1  0  0  0  0
 17 25  1  0  0  0  0
 24 26  1  0  0  0  0
 25 26  1  0  0  0  0
 24 27  2  0  0  0  0
 24 28  2  0  0  0  0
 25 29  2  0  0  0  0
 25 30  2  0  0  0  0
 31 32  2  0  0  0  0
 31 33  1  0  0  0  0
 31 34  1  0  0  0  0
 32 35  1  0  0  0  0
 32 36  1  0  0  0  0
 35 37  4  0  0  0  0
 37 38  4  0  0  0  0
 38 39  4  0  0  0  0
 35 40  4  0  0  0  0
 39 41  4  0  0  0  0
 40 41  4  0  0  0  0
 40 42  1  0  0  0  0
 41 43  1  0  0  0  0
 38 44  1  0  0  0  0
 37 45  1  0  0  0  0
 39 46  1  0  0  0  0
 46 47  1  0  0  0  0
 46 48  1  0  0  0  0
 46 49  1  0  0  0  0
 47 50  1  0  0  0  0
 47 51  1  0  0  0  0
 51 52  1  0  0  0  0
 51 53  1  0  0  0  0
 51 54  1  0  0  0  0
 50 55  1  0  0  0  0
 52 55  1  0  0  0  0
 52 56  1  0  0  0  0
 52 57  1  0  0  0  0
 50 58  1  0  0  0  0
 50 59  1  0  0  0  0
 55 60  1  0  0  0  0
 60 61  1  0  0  0  0
 60 62  1  0  0  0  0
 60 63  1  0  0  0  0
 61 64  1  0  0  0  0
 61 65  1  0  0  0  0
 61 66  1  0  0  0  0
 64 67  1  0  0  0  0
 64 68  1  0  0  0  0
 64 69  1  0  0  0  0
 67 70  1  0  0  0  0
 67 71  1  0  0  0  0
 67 72  1  0  0  0  0
 55 73  1  0  0  0  0
 74 75  2  0  0  0  0
 74 76  1  0  0  0  0
 74 77  1  0  0  0  0
 75 78  1  0  0  0  0
 75 79  1  0  0  0  0
 78 80  4  0  0  0  0
 80 81  4  0  0  0  0
 81 82  4  0  0  0  0
 78 83  4  0  0  0  0
 82 84  4  0  0  0  0
 83 84  4  0  0  0  0
 83 85  1  0  0  0  0
 84 86  1  0  0  0  0
 81 87  1  0  0  0  0
 80 88  1  0  0  0  0
 82 89  1  0  0  0  0
 89 90  1  0  0  0  0
 89 91  1  0  0  0  0
 89 92  1  0  0  0  0
 90 93  1  0  0  0  0
 90 94  1  0  0  0  0
 94 95  1  0  0  0  0
 94 96  1  0  0  0  0
 94 97  1  0  0  0  0
 93 98  1  0  0  0  0
 95 98  1  0  0  0  0
 95 99  1  0  0  0  0
 95100  1  0  0  0  0
 93101  1  0  0  0  0
 93102  1  0  0  0  0
 98103  1  0  0  0  0
103104  1  0  0  0  0
103105  1  0  0  0  0
103106  1  0  0  0  0
104107  1  0  0  0  0
104108  1  0  0  0  0
104109  1  0  0  0  0
107110  1  0  0  0  0
107111  1  0  0  0  0
107112  1  0  0  0  0
110113  1  0  0  0  0
110114  1  0  0  0  0
110115  1  0  0  0  0
 98116  1  0  0  0  0
M  END
