 xtb: 6.7.1 (edcfbbe)
          10212513403D

116116  0     0  0            999 V2000
    2.4675   10.8860    6.1646 C   0  0  0  0  0  0  0  0  0  0  0  0
    4.2725    8.3360    2.5124 C   0  0  0  0  0  0  0  0  0  0  0  0
    2.0243   10.8862    7.4301 F   0  0  0  0  0  0  0  0  0  0  0  0
    3.6277   11.5572    6.1795 F   0  0  0  0  0  0  0  0  0  0  0  0
    1.5983   11.5981    5.4567 F   0  0  0  0  0  0  0  0  0  0  0  0
    3.0967    7.7573    2.3888 F   0  0  0  0  0  0  0  0  0  0  0  0
    4.5985    8.8336    1.3036 F   0  0  0  0  0  0  0  0  0  0  0  0
    5.1866    7.3880    2.7667 F   0  0  0  0  0  0  0  0  0  0  0  0
    2.6971    9.1049    5.5123 S   0  0  0  0  0  0  0  0  0  0  0  0
    4.5141    9.7280    3.7653 S   0  0  0  0  0  0  0  0  0  0  0  0
    4.2474    9.1256    5.1998 N   0  0  0  0  0  0  0  0  0  0  0  0
    2.3848    8.3317    6.6858 O   0  0  0  0  0  0  0  0  0  0  0  0
    1.8830    9.0307    4.3598 O   0  0  0  0  0  0  0  0  0  0  0  0
    3.6716   10.8154    3.3987 O   0  0  0  0  0  0  0  0  0  0  0  0
    5.9306    9.9672    3.5993 O   0  0  0  0  0  0  0  0  0  0  0  0
    4.4708    7.4979    7.7089 C   0  0  0  0  0  0  0  0  0  0  0  0
    1.8455    4.6444    4.4371 C   0  0  0  0  0  0  0  0  0  0  0  0
    4.6079    8.8162    7.7550 F   0  0  0  0  0  0  0  0  0  0  0  0
    3.5433    7.1334    8.5922 F   0  0  0  0  0  0  0  0  0  0  0  0
    5.6391    7.0404    8.2682 F   0  0  0  0  0  0  0  0  0  0  0  0
    1.7438    4.9825    3.1565 F   0  0  0  0  0  0  0  0  0  0  0  0
    2.9427    3.8817    4.5577 F   0  0  0  0  0  0  0  0  0  0  0  0
    0.8019    3.8374    4.7150 F   0  0  0  0  0  0  0  0  0  0  0  0
    4.4662    6.4730    6.0863 S   0  0  0  0  0  0  0  0  0  0  0  0
    1.8874    6.1799    5.5639 S   0  0  0  0  0  0  0  0  0  0  0  0
    3.3039    6.7067    5.0816 N   0  0  0  0  0  0  0  0  0  0  0  0
    5.7583    6.7938    5.5515 O   0  0  0  0  0  0  0  0  0  0  0  0
    4.4482    5.1642    6.7023 O   0  0  0  0  0  0  0  0  0  0  0  0
    1.9009    5.5979    6.8828 O   0  0  0  0  0  0  0  0  0  0  0  0
    0.7010    6.8385    5.1715 O   0  0  0  0  0  0  0  0  0  0  0  0
   12.5910    4.6558    7.0798 C   0  0  0  0  0  0  0  0  0  0  0  0
   12.7357    5.9642    7.2508 C   0  0  0  0  0  0  0  0  0  0  0  0
   13.4370    4.0205    6.8816 H   0  0  0  0  0  0  0  0  0  0  0  0
   11.6319    4.1658    7.1171 H   0  0  0  0  0  0  0  0  0  0  0  0
   11.6642    6.9185    7.5109 C   0  0  0  0  0  0  0  0  0  0  0  0
   13.7227    6.4022    7.1728 H   0  0  0  0  0  0  0  0  0  0  0  0
   11.9153    8.2841    7.3602 C   0  0  0  0  0  0  0  0  0  0  0  0
   10.9241    9.2201    7.5849 C   0  0  0  0  0  0  0  0  0  0  0  0
    9.6460    8.8247    7.9729 C   0  0  0  0  0  0  0  0  0  0  0  0
   10.3845    6.5282    7.9122 C   0  0  0  0  0  0  0  0  0  0  0  0
    9.3929    7.4630    8.1366 C   0  0  0  0  0  0  0  0  0  0  0  0
   10.1667    5.4833    8.0646 H   0  0  0  0  0  0  0  0  0  0  0  0
    8.4137    7.1352    8.4536 H   0  0  0  0  0  0  0  0  0  0  0  0
   11.1519   10.2715    7.4792 H   0  0  0  0  0  0  0  0  0  0  0  0
   12.9026    8.6115    7.0672 H   0  0  0  0  0  0  0  0  0  0  0  0
    8.5458    9.8339    8.1957 C   0  0  0  0  0  0  0  0  0  0  0  0
    7.7987   10.2186    7.0040 N   0  0  0  0  0  0  0  0  0  0  0  0
    8.9524   10.7487    8.6318 H   0  0  0  0  0  0  0  0  0  0  0  0
    7.8150    9.4221    8.8958 H   0  0  0  0  0  0  0  0  0  0  0  0
    7.2939    9.1550    6.2126 C   0  0  0  0  0  0  0  0  0  0  0  0
    8.4384   11.1048    6.0524 C   0  0  0  0  0  0  0  0  0  0  0  0
    8.8731   10.2160    4.8581 C   0  0  0  0  0  0  0  0  0  0  0  0
    9.2723   11.6372    6.5094 H   0  0  0  0  0  0  0  0  0  0  0  0
    7.6973   11.8310    5.7124 H   0  0  0  0  0  0  0  0  0  0  0  0
    8.4082    8.8620    5.2201 N   0  0  0  0  0  0  0  0  0  0  0  0
    9.9499   10.2262    4.6913 H   0  0  0  0  0  0  0  0  0  0  0  0
    8.3410   10.5190    3.9574 H   0  0  0  0  0  0  0  0  0  0  0  0
    6.4176    9.4575    5.6330 H   0  0  0  0  0  0  0  0  0  0  0  0
    7.0568    8.2570    6.7733 H   0  0  0  0  0  0  0  0  0  0  0  0
    8.0460    7.9896    4.0858 C   0  0  0  0  0  0  0  0  0  0  0  0
    9.2764    7.3583    3.4441 C   0  0  0  0  0  0  0  0  0  0  0  0
    7.4815    8.5951    3.3773 H   0  0  0  0  0  0  0  0  0  0  0  0
    7.3635    7.2248    4.4620 H   0  0  0  0  0  0  0  0  0  0  0  0
    9.9135    6.2780    4.3206 C   0  0  0  0  0  0  0  0  0  0  0  0
   10.0189    8.1225    3.1976 H   0  0  0  0  0  0  0  0  0  0  0  0
    8.9568    6.9026    2.5072 H   0  0  0  0  0  0  0  0  0  0  0  0
   11.1097    5.6273    3.6340 C   0  0  0  0  0  0  0  0  0  0  0  0
    9.1601    5.5213    4.5454 H   0  0  0  0  0  0  0  0  0  0  0  0
   10.2516    6.7015    5.2697 H   0  0  0  0  0  0  0  0  0  0  0  0
   10.8069    5.1629    2.6993 H   0  0  0  0  0  0  0  0  0  0  0  0
   11.5483    4.8652    4.2742 H   0  0  0  0  0  0  0  0  0  0  0  0
   11.8763    6.3688    3.4156 H   0  0  0  0  0  0  0  0  0  0  0  0
    9.1424    8.3873    5.7609 H   0  0  0  0  0  0  0  0  0  0  0  0
    7.2670   -1.1314    5.6936 C   0  0  0  0  0  0  0  0  0  0  0  0
    6.0707   -1.3647    6.2205 C   0  0  0  0  0  0  0  0  0  0  0  0
    7.9662   -1.9303    5.5159 H   0  0  0  0  0  0  0  0  0  0  0  0
    7.5933   -0.1462    5.4070 H   0  0  0  0  0  0  0  0  0  0  0  0
    5.0354   -0.3756    6.4954 C   0  0  0  0  0  0  0  0  0  0  0  0
    5.7962   -2.3841    6.4658 H   0  0  0  0  0  0  0  0  0  0  0  0
    3.7632   -0.8144    6.8708 C   0  0  0  0  0  0  0  0  0  0  0  0
    2.7460    0.0840    7.1219 C   0  0  0  0  0  0  0  0  0  0  0  0
    2.9701    1.4532    7.0152 C   0  0  0  0  0  0  0  0  0  0  0  0
    5.2504    0.9996    6.3964 C   0  0  0  0  0  0  0  0  0  0  0  0
    4.2364    1.9025    6.6546 C   0  0  0  0  0  0  0  0  0  0  0  0
    6.2216    1.3746    6.1147 H   0  0  0  0  0  0  0  0  0  0  0  0
    4.4198    2.9617    6.5527 H   0  0  0  0  0  0  0  0  0  0  0  0
    1.7645   -0.2704    7.4003 H   0  0  0  0  0  0  0  0  0  0  0  0
    3.5717   -1.8753    6.9491 H   0  0  0  0  0  0  0  0  0  0  0  0
    1.8664    2.4331    7.2919 C   0  0  0  0  0  0  0  0  0  0  0  0
    1.3729    2.3237    8.6765 N   0  0  0  0  0  0  0  0  0  0  0  0
    1.0100    2.2058    6.6523 H   0  0  0  0  0  0  0  0  0  0  0  0
    2.2035    3.4484    7.0667 H   0  0  0  0  0  0  0  0  0  0  0  0
    2.3564    2.2501    9.6762 C   0  0  0  0  0  0  0  0  0  0  0  0
    0.5394    3.4350    9.0850 C   0  0  0  0  0  0  0  0  0  0  0  0
    1.5252    4.4905    9.6363 C   0  0  0  0  0  0  0  0  0  0  0  0
   -0.1506    3.0897    9.8617 H   0  0  0  0  0  0  0  0  0  0  0  0
   -0.0237    3.8311    8.2441 H   0  0  0  0  0  0  0  0  0  0  0  0
    2.7158    3.7043   10.0742 N   0  0  0  0  0  0  0  0  0  0  0  0
    1.1098    5.0587   10.4651 H   0  0  0  0  0  0  0  0  0  0  0  0
    1.8065    5.1688    8.8275 H   0  0  0  0  0  0  0  0  0  0  0  0
    3.2368    1.7033    9.3481 H   0  0  0  0  0  0  0  0  0  0  0  0
    1.9396    1.7892   10.5788 H   0  0  0  0  0  0  0  0  0  0  0  0
    3.9838    4.2253    9.5092 C   0  0  0  0  0  0  0  0  0  0  0  0
    5.2076    3.3708    9.8136 C   0  0  0  0  0  0  0  0  0  0  0  0
    4.1322    5.2212    9.9294 H   0  0  0  0  0  0  0  0  0  0  0  0
    3.8760    4.3419    8.4288 H   0  0  0  0  0  0  0  0  0  0  0  0
    6.4516    4.0690    9.2586 C   0  0  0  0  0  0  0  0  0  0  0  0
    5.1338    2.3976    9.3270 H   0  0  0  0  0  0  0  0  0  0  0  0
    5.3173    3.2097   10.8911 H   0  0  0  0  0  0  0  0  0  0  0  0
    7.6725    3.1595    9.3164 C   0  0  0  0  0  0  0  0  0  0  0  0
    6.6442    4.9809    9.8268 H   0  0  0  0  0  0  0  0  0  0  0  0
    6.2483    4.3602    8.2267 H   0  0  0  0  0  0  0  0  0  0  0  0
    7.5053    2.2583    8.7288 H   0  0  0  0  0  0  0  0  0  0  0  0
    7.8914    2.8650   10.3429 H   0  0  0  0  0  0  0  0  0  0  0  0
    8.5428    3.6725    8.9163 H   0  0  0  0  0  0  0  0  0  0  0  0
    2.8051    3.7358   11.0913 H   0  0  0  0  0  0  0  0  0  0  0  0
  1  3  1  0  0  0  0
  1  4  1  0  0  0  0
  1  5  1  0  0  0  0
  2  6  1  0  0  0  0
  2  7  1  0  0  0  0
  2  8  1  0  0  0  0
  1  9  1  0  0  0  0
  2 10  1  0  0  0  0
  9 11  1  0  0  0  0
 10 11  1  0  0  0  0
  9 12  2  0  0  0  0
  9 13  2  0  0  0  0
 10 14  2  0  0  0  0
 10 15  2  0  0  0  0
 16 18  1  0  0  0  0
 16 19  1  0  0  0  0
 16 20  1  0  0  0  0
 17 21  1  0  0  0  0
 17 22  1  0  0  0  0
 17 23  1  0  0  0  0
 16 24  1  0  0  0  0
 17 25  1  0  0  0  0
 24 26  1  0  0  0  0
 25 26  1  0  0  0  0
 24 27  2  0  0  0  0
 24 28  2  0  0  0  0
 25 29  2  0  0  0  0
 25 30  2  0  0  0  0
 31 32  2  0  0  0  0
 31 33  1  0  0  0  0
 31 34  1  0  0  0  0
 32 35  1  0  0  0  0
 32 36  1  0  0  0  0
 35 37  4  0  0  0  0
 37 38  4  0  0  0  0
 38 39  4  0  0  0  0
 35 40  4  0  0  0  0
 39 41  4  0  0  0  0
 40 41  4  0  0  0  0
 40 42  1  0  0  0  0
 41 43  1  0  0  0  0
 38 44  1  0  0  0  0
 37 45  1  0  0  0  0
 39 46  1  0  0  0  0
 46 47  1  0  0  0  0
 46 48  1  0  0  0  0
 46 49  1  0  0  0  0
 47 50  1  0  0  0  0
 47 51  1  0  0  0  0
 51 52  1  0  0  0  0
 51 53  1  0  0  0  0
 51 54  1  0  0  0  0
 50 55  1  0  0  0  0
 52 55  1  0  0  0  0
 52 56  1  0  0  0  0
 52 57  1  0  0  0  0
 50 58  1  0  0  0  0
 50 59  1  0  0  0  0
 55 60  1  0  0  0  0
 60 61  1  0  0  0  0
 60 62  1  0  0  0  0
 60 63  1  0  0  0  0
 61 64  1  0  0  0  0
 61 65  1  0  0  0  0
 61 66  1  0  0  0  0
 64 67  1  0  0  0  0
 64 68  1  0  0  0  0
 64 69  1  0  0  0  0
 67 70  1  0  0  0  0
 67 71  1  0  0  0  0
 67 72  1  0  0  0  0
 55 73  1  0  0  0  0
 74 75  2  0  0  0  0
 74 76  1  0  0  0  0
 74 77  1  0  0  0  0
 75 78  1  0  0  0  0
 75 79  1  0  0  0  0
 78 80  4  0  0  0  0
 80 81  4  0  0  0  0
 81 82  4  0  0  0  0
 78 83  4  0  0  0  0
 82 84  4  0  0  0  0
 83 84  4  0  0  0  0
 83 85  1  0  0  0  0
 84 86  1  0  0  0  0
 81 87  1  0  0  0  0
 80 88  1  0  0  0  0
 82 89  1  0  0  0  0
 89 90  1  0  0  0  0
 89 91  1  0  0  0  0
 89 92  1  0  0  0  0
 90 93  1  0  0  0  0
 90 94  1  0  0  0  0
 94 95  1  0  0  0  0
 94 96  1  0  0  0  0
 94 97  1  0  0  0  0
 93 98  1  0  0  0  0
 95 98  1  0  0  0  0
 95 99  1  0  0  0  0
 95100  1  0  0  0  0
 93101  1  0  0  0  0
 93102  1  0  0  0  0
 98103  1  0  0  0  0
103104  1  0  0  0  0
103105  1  0  0  0  0
103106  1  0  0  0  0
104107  1  0  0  0  0
104108  1  0  0  0  0
104109  1  0  0  0  0
107110  1  0  0  0  0
107111  1  0  0  0  0
107112  1  0  0  0  0
110113  1  0  0  0  0
110114  1  0  0  0  0
110115  1  0  0  0  0
 98116  1  0  0  0  0
M  END
