 xtb: 6.7.1 (edcfbbe)
          10212513333D

116116  0     0  0            999 V2000
    5.3013    5.3602    0.3611 C   0  0  0  0  0  0  0  0  0  0  0  0
    5.9773    9.5883    1.3461 C   0  0  0  0  0  0  0  0  0  0  0  0
    4.5147    4.4894   -0.2752 F   0  0  0  0  0  0  0  0  0  0  0  0
    5.4444    6.4211   -0.4291 F   0  0  0  0  0  0  0  0  0  0  0  0
    6.4965    4.7728    0.4892 F   0  0  0  0  0  0  0  0  0  0  0  0
    7.2340    9.9703    1.0925 F   0  0  0  0  0  0  0  0  0  0  0  0
    5.3453    9.4662    0.1863 F   0  0  0  0  0  0  0  0  0  0  0  0
    5.3958   10.5636    2.0379 F   0  0  0  0  0  0  0  0  0  0  0  0
    4.5612    5.8319    2.0537 S   0  0  0  0  0  0  0  0  0  0  0  0
    6.0055    7.9751    2.3079 S   0  0  0  0  0  0  0  0  0  0  0  0
    4.5748    7.4085    2.0204 N   0  0  0  0  0  0  0  0  0  0  0  0
    3.2536    5.2742    2.0412 O   0  0  0  0  0  0  0  0  0  0  0  0
    5.5069    5.2939    2.9977 O   0  0  0  0  0  0  0  0  0  0  0  0
    6.2945    8.3616    3.6536 O   0  0  0  0  0  0  0  0  0  0  0  0
    7.0618    7.1974    1.6935 O   0  0  0  0  0  0  0  0  0  0  0  0
    7.8202    2.6592    8.2593 C   0  0  0  0  0  0  0  0  0  0  0  0
    9.9360    6.3029   10.6786 C   0  0  0  0  0  0  0  0  0  0  0  0
    8.0909    3.1766    7.0603 F   0  0  0  0  0  0  0  0  0  0  0  0
    8.9327    2.1785    8.7879 F   0  0  0  0  0  0  0  0  0  0  0  0
    6.9886    1.6299    8.0406 F   0  0  0  0  0  0  0  0  0  0  0  0
    9.1903    6.9192   11.5940 F   0  0  0  0  0  0  0  0  0  0  0  0
   10.5667    5.2953   11.2700 F   0  0  0  0  0  0  0  0  0  0  0  0
   10.8562    7.1669   10.2538 F   0  0  0  0  0  0  0  0  0  0  0  0
    6.9203    3.8920    9.3686 S   0  0  0  0  0  0  0  0  0  0  0  0
    8.8405    5.6742    9.2978 S   0  0  0  0  0  0  0  0  0  0  0  0
    7.9557    4.6954   10.1967 N   0  0  0  0  0  0  0  0  0  0  0  0
    6.1852    4.6931    8.4056 O   0  0  0  0  0  0  0  0  0  0  0  0
    6.0744    3.0744   10.1875 O   0  0  0  0  0  0  0  0  0  0  0  0
    9.6640    4.9444    8.3878 O   0  0  0  0  0  0  0  0  0  0  0  0
    8.1341    6.8034    8.7850 O   0  0  0  0  0  0  0  0  0  0  0  0
    9.2480   10.2284   11.1043 C   0  0  0  0  0  0  0  0  0  0  0  0
    8.4668   10.3638   10.0399 C   0  0  0  0  0  0  0  0  0  0  0  0
    8.9385   10.5749   12.0757 H   0  0  0  0  0  0  0  0  0  0  0  0
   10.2160    9.7617   11.0557 H   0  0  0  0  0  0  0  0  0  0  0  0
    8.7642    9.9195    8.6843 C   0  0  0  0  0  0  0  0  0  0  0  0
    7.4944   10.8286   10.1602 H   0  0  0  0  0  0  0  0  0  0  0  0
   10.0431    9.5390    8.2770 C   0  0  0  0  0  0  0  0  0  0  0  0
   10.2705    9.0869    6.9937 C   0  0  0  0  0  0  0  0  0  0  0  0
    9.2278    9.0036    6.0788 C   0  0  0  0  0  0  0  0  0  0  0  0
    7.7314    9.8619    7.7487 C   0  0  0  0  0  0  0  0  0  0  0  0
    7.9563    9.4040    6.4663 C   0  0  0  0  0  0  0  0  0  0  0  0
    6.7349   10.1615    8.0434 H   0  0  0  0  0  0  0  0  0  0  0  0
    7.1491    9.3363    5.7517 H   0  0  0  0  0  0  0  0  0  0  0  0
   11.2611    8.7770    6.6967 H   0  0  0  0  0  0  0  0  0  0  0  0
   10.8669    9.5957    8.9706 H   0  0  0  0  0  0  0  0  0  0  0  0
    9.4435    8.4297    4.7068 C   0  0  0  0  0  0  0  0  0  0  0  0
    9.8615    7.0249    4.8060 N   0  0  0  0  0  0  0  0  0  0  0  0
   10.2571    8.9601    4.2005 H   0  0  0  0  0  0  0  0  0  0  0  0
    8.5244    8.5477    4.1204 H   0  0  0  0  0  0  0  0  0  0  0  0
    9.8307    6.3130    3.5765 C   0  0  0  0  0  0  0  0  0  0  0  0
    9.0472    6.2080    5.6878 C   0  0  0  0  0  0  0  0  0  0  0  0
    7.8635    5.7662    4.8174 C   0  0  0  0  0  0  0  0  0  0  0  0
    8.7342    6.7552    6.5726 H   0  0  0  0  0  0  0  0  0  0  0  0
    9.6395    5.3525    6.0186 H   0  0  0  0  0  0  0  0  0  0  0  0
    8.4547    5.6615    3.4585 N   0  0  0  0  0  0  0  0  0  0  0  0
    7.0814    6.5250    4.8026 H   0  0  0  0  0  0  0  0  0  0  0  0
    7.4292    4.8209    5.1247 H   0  0  0  0  0  0  0  0  0  0  0  0
   10.5654    5.5045    3.6077 H   0  0  0  0  0  0  0  0  0  0  0  0
   10.0138    6.9549    2.7141 H   0  0  0  0  0  0  0  0  0  0  0  0
    8.4528    4.3025    2.8773 C   0  0  0  0  0  0  0  0  0  0  0  0
    9.2590    3.2649    3.6564 C   0  0  0  0  0  0  0  0  0  0  0  0
    8.8240    4.3872    1.8548 H   0  0  0  0  0  0  0  0  0  0  0  0
    7.4045    4.0005    2.8305 H   0  0  0  0  0  0  0  0  0  0  0  0
    8.8542    1.8441    3.2546 C   0  0  0  0  0  0  0  0  0  0  0  0
    9.0876    3.3829    4.7256 H   0  0  0  0  0  0  0  0  0  0  0  0
   10.3280    3.3818    3.4690 H   0  0  0  0  0  0  0  0  0  0  0  0
    9.1785    1.5242    1.7999 C   0  0  0  0  0  0  0  0  0  0  0  0
    7.7848    1.7130    3.4257 H   0  0  0  0  0  0  0  0  0  0  0  0
    9.3829    1.1411    3.9007 H   0  0  0  0  0  0  0  0  0  0  0  0
    8.5841    2.1327    1.1244 H   0  0  0  0  0  0  0  0  0  0  0  0
    8.9649    0.4793    1.5904 H   0  0  0  0  0  0  0  0  0  0  0  0
   10.2319    1.7022    1.5954 H   0  0  0  0  0  0  0  0  0  0  0  0
    7.8777    6.2311    2.8060 H   0  0  0  0  0  0  0  0  0  0  0  0
    2.2414   11.0322    3.3405 C   0  0  0  0  0  0  0  0  0  0  0  0
    3.1232   10.6225    4.2444 C   0  0  0  0  0  0  0  0  0  0  0  0
    2.1597   12.0716    3.0730 H   0  0  0  0  0  0  0  0  0  0  0  0
    1.5756   10.3594    2.8286 H   0  0  0  0  0  0  0  0  0  0  0  0
    3.3455    9.2514    4.6850 C   0  0  0  0  0  0  0  0  0  0  0  0
    3.7684   11.3550    4.7137 H   0  0  0  0  0  0  0  0  0  0  0  0
    2.6266    8.1645    4.1859 C   0  0  0  0  0  0  0  0  0  0  0  0
    2.8921    6.8827    4.6193 C   0  0  0  0  0  0  0  0  0  0  0  0
    3.8998    6.6427    5.5462 C   0  0  0  0  0  0  0  0  0  0  0  0
    4.3292    9.0039    5.6428 C   0  0  0  0  0  0  0  0  0  0  0  0
    4.6119    7.7187    6.0635 C   0  0  0  0  0  0  0  0  0  0  0  0
    4.8870    9.8346    6.0496 H   0  0  0  0  0  0  0  0  0  0  0  0
    5.4033    7.5471    6.7827 H   0  0  0  0  0  0  0  0  0  0  0  0
    2.3290    6.0527    4.2250 H   0  0  0  0  0  0  0  0  0  0  0  0
    1.8592    8.3169    3.4452 H   0  0  0  0  0  0  0  0  0  0  0  0
    4.1553    5.2418    6.0248 C   0  0  0  0  0  0  0  0  0  0  0  0
    3.0464    4.8153    6.8924 N   0  0  0  0  0  0  0  0  0  0  0  0
    5.1210    5.1856    6.5429 H   0  0  0  0  0  0  0  0  0  0  0  0
    4.1698    4.5708    5.1639 H   0  0  0  0  0  0  0  0  0  0  0  0
    2.8213    5.6642    8.0087 C   0  0  0  0  0  0  0  0  0  0  0  0
    3.1802    3.4650    7.4401 C   0  0  0  0  0  0  0  0  0  0  0  0
    3.2953    3.6270    8.9712 C   0  0  0  0  0  0  0  0  0  0  0  0
    4.0644    2.9790    7.0272 H   0  0  0  0  0  0  0  0  0  0  0  0
    2.3006    2.8721    7.1762 H   0  0  0  0  0  0  0  0  0  0  0  0
    3.6105    5.0605    9.1393 N   0  0  0  0  0  0  0  0  0  0  0  0
    4.0798    3.0125    9.4114 H   0  0  0  0  0  0  0  0  0  0  0  0
    2.3400    3.4199    9.4582 H   0  0  0  0  0  0  0  0  0  0  0  0
    1.7650    5.6292    8.3073 H   0  0  0  0  0  0  0  0  0  0  0  0
    3.1220    6.6924    7.8063 H   0  0  0  0  0  0  0  0  0  0  0  0
    3.3585    5.6467   10.4712 C   0  0  0  0  0  0  0  0  0  0  0  0
    4.6412    5.8899   11.2627 C   0  0  0  0  0  0  0  0  0  0  0  0
    2.7027    4.9732   11.0276 H   0  0  0  0  0  0  0  0  0  0  0  0
    2.8327    6.5935   10.3305 H   0  0  0  0  0  0  0  0  0  0  0  0
    5.5171    7.0131   10.7008 C   0  0  0  0  0  0  0  0  0  0  0  0
    5.2246    4.9687   11.2991 H   0  0  0  0  0  0  0  0  0  0  0  0
    4.3535    6.1453   12.2847 H   0  0  0  0  0  0  0  0  0  0  0  0
    4.8467    8.3829   10.7198 C   0  0  0  0  0  0  0  0  0  0  0  0
    5.8488    6.7818    9.6885 H   0  0  0  0  0  0  0  0  0  0  0  0
    6.4217    7.0583   11.3080 H   0  0  0  0  0  0  0  0  0  0  0  0
    4.0288    8.4489   10.0047 H   0  0  0  0  0  0  0  0  0  0  0  0
    5.5790    9.1394   10.4557 H   0  0  0  0  0  0  0  0  0  0  0  0
    4.4615    8.6101   11.7117 H   0  0  0  0  0  0  0  0  0  0  0  0
    4.6299    5.1405    8.8981 H   0  0  0  0  0  0  0  0  0  0  0  0
  1  3  1  0  0  0  0
  1  4  1  0  0  0  0
  1  5  1  0  0  0  0
  2  6  1  0  0  0  0
  2  7  1  0  0  0  0
  2  8  1  0  0  0  0
  1  9  1  0  0  0  0
  2 10  1  0  0  0  0
  9 11  1  0  0  0  0
 10 11  1  0  0  0  0
  9 12  2  0  0  0  0
  9 13  2  0  0  0  0
 10 14  2  0  0  0  0
 10 15  2  0  0  0  0
 16 18  1  0  0  0  0
 16 19  1  0  0  0  0
 16 20  1  0  0  0  0
 17 21  1  0  0  0  0
 17 22  1  0  0  0  0
 17 23  1  0  0  0  0
 16 24  1  0  0  0  0
 17 25  1  0  0  0  0
 24 26  1  0  0  0  0
 25 26  1  0  0  0  0
 24 27  2  0  0  0  0
 24 28  2  0  0  0  0
 25 29  2  0  0  0  0
 25 30  2  0  0  0  0
 31 32  2  0  0  0  0
 31 33  1  0  0  0  0
 31 34  1  0  0  0  0
 32 35  1  0  0  0  0
 32 36  1  0  0  0  0
 35 37  4  0  0  0  0
 37 38  4  0  0  0  0
 38 39  4  0  0  0  0
 35 40  4  0  0  0  0
 39 41  4  0  0  0  0
 40 41  4  0  0  0  0
 40 42  1  0  0  0  0
 41 43  1  0  0  0  0
 38 44  1  0  0  0  0
 37 45  1  0  0  0  0
 39 46  1  0  0  0  0
 46 47  1  0  0  0  0
 46 48  1  0  0  0  0
 46 49  1  0  0  0  0
 47 50  1  0  0  0  0
 47 51  1  0  0  0  0
 51 52  1  0  0  0  0
 51 53  1  0  0  0  0
 51 54  1  0  0  0  0
 50 55  1  0  0  0  0
 52 55  1  0  0  0  0
 52 56  1  0  0  0  0
 52 57  1  0  0  0  0
 50 58  1  0  0  0  0
 50 59  1  0  0  0  0
 55 60  1  0  0  0  0
 60 61  1  0  0  0  0
 60 62  1  0  0  0  0
 60 63  1  0  0  0  0
 61 64  1  0  0  0  0
 61 65  1  0  0  0  0
 61 66  1  0  0  0  0
 64 67  1  0  0  0  0
 64 68  1  0  0  0  0
 64 69  1  0  0  0  0
 67 70  1  0  0  0  0
 67 71  1  0  0  0  0
 67 72  1  0  0  0  0
 55 73  1  0  0  0  0
 74 75  2  0  0  0  0
 74 76  1  0  0  0  0
 74 77  1  0  0  0  0
 75 78  1  0  0  0  0
 75 79  1  0  0  0  0
 78 80  4  0  0  0  0
 80 81  4  0  0  0  0
 81 82  4  0  0  0  0
 78 83  4  0  0  0  0
 82 84  4  0  0  0  0
 83 84  4  0  0  0  0
 83 85  1  0  0  0  0
 84 86  1  0  0  0  0
 81 87  1  0  0  0  0
 80 88  1  0  0  0  0
 82 89  1  0  0  0  0
 89 90  1  0  0  0  0
 89 91  1  0  0  0  0
 89 92  1  0  0  0  0
 90 93  1  0  0  0  0
 90 94  1  0  0  0  0
 94 95  1  0  0  0  0
 94 96  1  0  0  0  0
 94 97  1  0  0  0  0
 93 98  1  0  0  0  0
 95 98  1  0  0  0  0
 95 99  1  0  0  0  0
 95100  1  0  0  0  0
 93101  1  0  0  0  0
 93102  1  0  0  0  0
 98103  1  0  0  0  0
103104  1  0  0  0  0
103105  1  0  0  0  0
103106  1  0  0  0  0
104107  1  0  0  0  0
104108  1  0  0  0  0
104109  1  0  0  0  0
107110  1  0  0  0  0
107111  1  0  0  0  0
107112  1  0  0  0  0
110113  1  0  0  0  0
110114  1  0  0  0  0
110115  1  0  0  0  0
 98116  1  0  0  0  0
M  END
