 xtb: 6.7.1 (edcfbbe)
          10212513533D

116116  0     0  0            999 V2000
    7.8646    4.2571    9.7727 C   0  0  0  0  0  0  0  0  0  0  0  0
    8.4595    2.4835    5.3793 C   0  0  0  0  0  0  0  0  0  0  0  0
    8.6061    4.0440   10.8569 F   0  0  0  0  0  0  0  0  0  0  0  0
    8.2657    5.3977    9.2164 F   0  0  0  0  0  0  0  0  0  0  0  0
    6.6002    4.4509   10.1831 F   0  0  0  0  0  0  0  0  0  0  0  0
    9.7713    2.5361    5.5175 F   0  0  0  0  0  0  0  0  0  0  0  0
    8.0060    1.3322    5.8823 F   0  0  0  0  0  0  0  0  0  0  0  0
    8.1994    2.4777    4.0710 F   0  0  0  0  0  0  0  0  0  0  0  0
    7.8594    2.7914    8.5814 S   0  0  0  0  0  0  0  0  0  0  0  0
    7.5252    3.9060    6.1732 S   0  0  0  0  0  0  0  0  0  0  0  0
    6.8564    3.3075    7.4688 N   0  0  0  0  0  0  0  0  0  0  0  0
    9.1849    2.6328    8.0895 O   0  0  0  0  0  0  0  0  0  0  0  0
    7.2541    1.7556    9.3535 O   0  0  0  0  0  0  0  0  0  0  0  0
    6.4227    4.1743    5.2772 O   0  0  0  0  0  0  0  0  0  0  0  0
    8.4359    4.9840    6.3807 O   0  0  0  0  0  0  0  0  0  0  0  0
    9.0075    4.5383    1.9368 C   0  0  0  0  0  0  0  0  0  0  0  0
    4.1841    2.8651    1.2646 C   0  0  0  0  0  0  0  0  0  0  0  0
    8.4731    5.0139    3.0727 F   0  0  0  0  0  0  0  0  0  0  0  0
    9.8622    3.5756    2.2355 F   0  0  0  0  0  0  0  0  0  0  0  0
    9.7099    5.5521    1.4022 F   0  0  0  0  0  0  0  0  0  0  0  0
    4.0439    1.5784    0.9615 F   0  0  0  0  0  0  0  0  0  0  0  0
    3.0366    3.2692    1.8404 F   0  0  0  0  0  0  0  0  0  0  0  0
    4.3040    3.5480    0.1221 F   0  0  0  0  0  0  0  0  0  0  0  0
    7.6227    4.0431    0.7566 S   0  0  0  0  0  0  0  0  0  0  0  0
    5.6316    3.2342    2.4307 S   0  0  0  0  0  0  0  0  0  0  0  0
    6.8648    2.9158    1.5331 N   0  0  0  0  0  0  0  0  0  0  0  0
    6.9033    5.2865    0.6285 O   0  0  0  0  0  0  0  0  0  0  0  0
    8.2837    3.5586   -0.4061 O   0  0  0  0  0  0  0  0  0  0  0  0
    5.4384    2.2897    3.4838 O   0  0  0  0  0  0  0  0  0  0  0  0
    5.3746    4.6186    2.7268 O   0  0  0  0  0  0  0  0  0  0  0  0
    7.0913   10.1707    8.0808 C   0  0  0  0  0  0  0  0  0  0  0  0
    7.0461    8.9772    7.5023 C   0  0  0  0  0  0  0  0  0  0  0  0
    7.8377   10.4059    8.8191 H   0  0  0  0  0  0  0  0  0  0  0  0
    6.4009   10.9624    7.8389 H   0  0  0  0  0  0  0  0  0  0  0  0
    6.0877    8.5595    6.4847 C   0  0  0  0  0  0  0  0  0  0  0  0
    7.7800    8.2243    7.7574 H   0  0  0  0  0  0  0  0  0  0  0  0
    6.3909    7.4522    5.6885 C   0  0  0  0  0  0  0  0  0  0  0  0
    5.5196    7.0257    4.7001 C   0  0  0  0  0  0  0  0  0  0  0  0
    4.3092    7.6917    4.4854 C   0  0  0  0  0  0  0  0  0  0  0  0
    4.8613    9.1971    6.2876 C   0  0  0  0  0  0  0  0  0  0  0  0
    3.9871    8.7685    5.3049 C   0  0  0  0  0  0  0  0  0  0  0  0
    4.5789   10.0238    6.9215 H   0  0  0  0  0  0  0  0  0  0  0  0
    3.0354    9.2692    5.1877 H   0  0  0  0  0  0  0  0  0  0  0  0
    5.7383    6.1134    4.1610 H   0  0  0  0  0  0  0  0  0  0  0  0
    7.3048    6.9020    5.8559 H   0  0  0  0  0  0  0  0  0  0  0  0
    3.4247    7.2792    3.3339 C   0  0  0  0  0  0  0  0  0  0  0  0
    3.7862    7.8905    2.0502 N   0  0  0  0  0  0  0  0  0  0  0  0
    2.3858    7.5591    3.5293 H   0  0  0  0  0  0  0  0  0  0  0  0
    3.4855    6.1996    3.1908 H   0  0  0  0  0  0  0  0  0  0  0  0
    4.9850    7.4106    1.4599 C   0  0  0  0  0  0  0  0  0  0  0  0
    3.9748    9.3262    2.0751 C   0  0  0  0  0  0  0  0  0  0  0  0
    5.4858    9.5417    2.3518 C   0  0  0  0  0  0  0  0  0  0  0  0
    3.3440    9.7961    2.8256 H   0  0  0  0  0  0  0  0  0  0  0  0
    3.7082    9.7266    1.0937 H   0  0  0  0  0  0  0  0  0  0  0  0
    6.0932    8.2090    2.1327 N   0  0  0  0  0  0  0  0  0  0  0  0
    5.6555    9.8775    3.3734 H   0  0  0  0  0  0  0  0  0  0  0  0
    5.9203   10.2633    1.6612 H   0  0  0  0  0  0  0  0  0  0  0  0
    5.0100    7.6542    0.3941 H   0  0  0  0  0  0  0  0  0  0  0  0
    5.1545    6.3418    1.5984 H   0  0  0  0  0  0  0  0  0  0  0  0
    7.4028    8.1680    1.4537 C   0  0  0  0  0  0  0  0  0  0  0  0
    8.5628    8.2883    2.4367 C   0  0  0  0  0  0  0  0  0  0  0  0
    7.4369    8.9610    0.7030 H   0  0  0  0  0  0  0  0  0  0  0  0
    7.4629    7.1991    0.9490 H   0  0  0  0  0  0  0  0  0  0  0  0
    8.6675    9.6259    3.1705 C   0  0  0  0  0  0  0  0  0  0  0  0
    9.4809    8.1294    1.8697 H   0  0  0  0  0  0  0  0  0  0  0  0
    8.4951    7.4846    3.1712 H   0  0  0  0  0  0  0  0  0  0  0  0
    9.9641    9.6950    3.9694 C   0  0  0  0  0  0  0  0  0  0  0  0
    7.8319    9.7494    3.8626 H   0  0  0  0  0  0  0  0  0  0  0  0
    8.6407   10.4482    2.4511 H   0  0  0  0  0  0  0  0  0  0  0  0
   10.0050    8.8819    4.6892 H   0  0  0  0  0  0  0  0  0  0  0  0
   10.0318   10.6363    4.5089 H   0  0  0  0  0  0  0  0  0  0  0  0
   10.8238    9.6129    3.3096 H   0  0  0  0  0  0  0  0  0  0  0  0
    6.2030    7.7395    3.0559 H   0  0  0  0  0  0  0  0  0  0  0  0
   -0.7656    5.3398   10.8716 C   0  0  0  0  0  0  0  0  0  0  0  0
   -0.2280    4.1503   10.6295 C   0  0  0  0  0  0  0  0  0  0  0  0
   -0.9798    5.6609   11.8759 H   0  0  0  0  0  0  0  0  0  0  0  0
   -1.0166    6.0390   10.0927 H   0  0  0  0  0  0  0  0  0  0  0  0
    0.1082    3.5970    9.3236 C   0  0  0  0  0  0  0  0  0  0  0  0
   -0.0048    3.4971   11.4638 H   0  0  0  0  0  0  0  0  0  0  0  0
    0.6329    2.3047    9.2482 C   0  0  0  0  0  0  0  0  0  0  0  0
    0.9664    1.7366    8.0337 C   0  0  0  0  0  0  0  0  0  0  0  0
    0.7963    2.4444    6.8489 C   0  0  0  0  0  0  0  0  0  0  0  0
   -0.0788    4.2952    8.1297 C   0  0  0  0  0  0  0  0  0  0  0  0
    0.2607    3.7278    6.9183 C   0  0  0  0  0  0  0  0  0  0  0  0
   -0.5020    5.2871    8.1467 H   0  0  0  0  0  0  0  0  0  0  0  0
    0.0866    4.2794    6.0043 H   0  0  0  0  0  0  0  0  0  0  0  0
    1.3466    0.7253    8.0039 H   0  0  0  0  0  0  0  0  0  0  0  0
    0.7702    1.7367   10.1569 H   0  0  0  0  0  0  0  0  0  0  0  0
    1.1950    1.8642    5.5162 C   0  0  0  0  0  0  0  0  0  0  0  0
    2.5883    2.0471    5.1263 N   0  0  0  0  0  0  0  0  0  0  0  0
    0.5899    2.3297    4.7306 H   0  0  0  0  0  0  0  0  0  0  0  0
    0.9955    0.7921    5.4964 H   0  0  0  0  0  0  0  0  0  0  0  0
    3.1852    3.3215    5.3360 C   0  0  0  0  0  0  0  0  0  0  0  0
    3.5829    1.0926    5.5682 C   0  0  0  0  0  0  0  0  0  0  0  0
    4.2097    1.7365    6.8136 C   0  0  0  0  0  0  0  0  0  0  0  0
    4.3354    1.0087    4.7805 H   0  0  0  0  0  0  0  0  0  0  0  0
    3.1434    0.1179    5.7683 H   0  0  0  0  0  0  0  0  0  0  0  0
    4.1624    3.1828    6.5004 N   0  0  0  0  0  0  0  0  0  0  0  0
    5.2339    1.4278    7.0098 H   0  0  0  0  0  0  0  0  0  0  0  0
    3.5983    1.5534    7.6997 H   0  0  0  0  0  0  0  0  0  0  0  0
    2.4425    4.0894    5.5518 H   0  0  0  0  0  0  0  0  0  0  0  0
    3.7919    3.6053    4.4716 H   0  0  0  0  0  0  0  0  0  0  0  0
    3.8758    4.0032    7.6904 C   0  0  0  0  0  0  0  0  0  0  0  0
    4.0565    5.4900    7.4145 C   0  0  0  0  0  0  0  0  0  0  0  0
    4.5894    3.7040    8.4614 H   0  0  0  0  0  0  0  0  0  0  0  0
    2.8589    3.7827    8.0243 H   0  0  0  0  0  0  0  0  0  0  0  0
    4.0243    6.3236    8.6967 C   0  0  0  0  0  0  0  0  0  0  0  0
    3.2824    5.8530    6.7346 H   0  0  0  0  0  0  0  0  0  0  0  0
    5.0237    5.6235    6.9291 H   0  0  0  0  0  0  0  0  0  0  0  0
    2.6698    6.2941    9.3964 C   0  0  0  0  0  0  0  0  0  0  0  0
    4.2684    7.3550    8.4366 H   0  0  0  0  0  0  0  0  0  0  0  0
    4.7923    5.9623    9.3790 H   0  0  0  0  0  0  0  0  0  0  0  0
    2.4535    5.3080    9.7970 H   0  0  0  0  0  0  0  0  0  0  0  0
    1.8757    6.5674    8.7051 H   0  0  0  0  0  0  0  0  0  0  0  0
    2.6604    6.9991   10.2231 H   0  0  0  0  0  0  0  0  0  0  0  0
    5.0926    3.4788    6.1281 H   0  0  0  0  0  0  0  0  0  0  0  0
  1  3  1  0  0  0  0
  1  4  1  0  0  0  0
  1  5  1  0  0  0  0
  2  6  1  0  0  0  0
  2  7  1  0  0  0  0
  2  8  1  0  0  0  0
  1  9  1  0  0  0  0
  2 10  1  0  0  0  0
  9 11  1  0  0  0  0
 10 11  1  0  0  0  0
  9 12  2  0  0  0  0
  9 13  2  0  0  0  0
 10 14  2  0  0  0  0
 10 15  2  0  0  0  0
 16 18  1  0  0  0  0
 16 19  1  0  0  0  0
 16 20  1  0  0  0  0
 17 21  1  0  0  0  0
 17 22  1  0  0  0  0
 17 23  1  0  0  0  0
 16 24  1  0  0  0  0
 17 25  1  0  0  0  0
 24 26  1  0  0  0  0
 25 26  1  0  0  0  0
 24 27  2  0  0  0  0
 24 28  2  0  0  0  0
 25 29  2  0  0  0  0
 25 30  2  0  0  0  0
 31 32  2  0  0  0  0
 31 33  1  0  0  0  0
 31 34  1  0  0  0  0
 32 35  1  0  0  0  0
 32 36  1  0  0  0  0
 35 37  4  0  0  0  0
 37 38  4  0  0  0  0
 38 39  4  0  0  0  0
 35 40  4  0  0  0  0
 39 41  4  0  0  0  0
 40 41  4  0  0  0  0
 40 42  1  0  0  0  0
 41 43  1  0  0  0  0
 38 44  1  0  0  0  0
 37 45  1  0  0  0  0
 39 46  1  0  0  0  0
 46 47  1  0  0  0  0
 46 48  1  0  0  0  0
 46 49  1  0  0  0  0
 47 50  1  0  0  0  0
 47 51  1  0  0  0  0
 51 52  1  0  0  0  0
 51 53  1  0  0  0  0
 51 54  1  0  0  0  0
 50 55  1  0  0  0  0
 52 55  1  0  0  0  0
 52 56  1  0  0  0  0
 52 57  1  0  0  0  0
 50 58  1  0  0  0  0
 50 59  1  0  0  0  0
 55 60  1  0  0  0  0
 60 61  1  0  0  0  0
 60 62  1  0  0  0  0
 60 63  1  0  0  0  0
 61 64  1  0  0  0  0
 61 65  1  0  0  0  0
 61 66  1  0  0  0  0
 64 67  1  0  0  0  0
 64 68  1  0  0  0  0
 64 69  1  0  0  0  0
 67 70  1  0  0  0  0
 67 71  1  0  0  0  0
 67 72  1  0  0  0  0
 55 73  1  0  0  0  0
 74 75  2  0  0  0  0
 74 76  1  0  0  0  0
 74 77  1  0  0  0  0
 75 78  1  0  0  0  0
 75 79  1  0  0  0  0
 78 80  4  0  0  0  0
 80 81  4  0  0  0  0
 81 82  4  0  0  0  0
 78 83  4  0  0  0  0
 82 84  4  0  0  0  0
 83 84  4  0  0  0  0
 83 85  1  0  0  0  0
 84 86  1  0  0  0  0
 81 87  1  0  0  0  0
 80 88  1  0  0  0  0
 82 89  1  0  0  0  0
 89 90  1  0  0  0  0
 89 91  1  0  0  0  0
 89 92  1  0  0  0  0
 90 93  1  0  0  0  0
 90 94  1  0  0  0  0
 94 95  1  0  0  0  0
 94 96  1  0  0  0  0
 94 97  1  0  0  0  0
 93 98  1  0  0  0  0
 95 98  1  0  0  0  0
 95 99  1  0  0  0  0
 95100  1  0  0  0  0
 93101  1  0  0  0  0
 93102  1  0  0  0  0
 98103  1  0  0  0  0
103104  1  0  0  0  0
103105  1  0  0  0  0
103106  1  0  0  0  0
104107  1  0  0  0  0
104108  1  0  0  0  0
104109  1  0  0  0  0
107110  1  0  0  0  0
107111  1  0  0  0  0
107112  1  0  0  0  0
110113  1  0  0  0  0
110114  1  0  0  0  0
110115  1  0  0  0  0
 98116  1  0  0  0  0
M  END
