 xtb: 6.7.1 (edcfbbe)
          10212513443D

116116  0     0  0            999 V2000
    2.5627    7.4159    4.2378 C   0  0  0  0  0  0  0  0  0  0  0  0
    4.1350    3.3653    3.8119 C   0  0  0  0  0  0  0  0  0  0  0  0
    2.3717    8.1466    5.3295 F   0  0  0  0  0  0  0  0  0  0  0  0
    2.3586    8.1935    3.1760 F   0  0  0  0  0  0  0  0  0  0  0  0
    1.6398    6.4537    4.2239 F   0  0  0  0  0  0  0  0  0  0  0  0
    4.8294    3.3279    2.6880 F   0  0  0  0  0  0  0  0  0  0  0  0
    3.9951    2.0876    4.2252 F   0  0  0  0  0  0  0  0  0  0  0  0
    2.9013    3.8035    3.5685 F   0  0  0  0  0  0  0  0  0  0  0  0
    4.2804    6.6553    4.2210 S   0  0  0  0  0  0  0  0  0  0  0  0
    4.9813    4.3570    5.2028 S   0  0  0  0  0  0  0  0  0  0  0  0
    4.0864    5.6185    5.4093 N   0  0  0  0  0  0  0  0  0  0  0  0
    4.4243    5.9711    2.9706 O   0  0  0  0  0  0  0  0  0  0  0  0
    5.1936    7.7228    4.4662 O   0  0  0  0  0  0  0  0  0  0  0  0
    6.3001    4.6000    4.7181 O   0  0  0  0  0  0  0  0  0  0  0  0
    4.8355    3.4631    6.3277 O   0  0  0  0  0  0  0  0  0  0  0  0
    9.1051    4.9072    8.5960 C   0  0  0  0  0  0  0  0  0  0  0  0
   11.3175    9.1599    9.8608 C   0  0  0  0  0  0  0  0  0  0  0  0
    8.5450    4.5940    7.4195 F   0  0  0  0  0  0  0  0  0  0  0  0
   10.4220    4.7617    8.4521 F   0  0  0  0  0  0  0  0  0  0  0  0
    8.7012    3.9648    9.4632 F   0  0  0  0  0  0  0  0  0  0  0  0
   11.2278    8.4698   10.9943 F   0  0  0  0  0  0  0  0  0  0  0  0
   12.3744    8.6918    9.1847 F   0  0  0  0  0  0  0  0  0  0  0  0
   11.5830   10.4298   10.1787 F   0  0  0  0  0  0  0  0  0  0  0  0
    8.5981    6.6460    9.1736 S   0  0  0  0  0  0  0  0  0  0  0  0
    9.7856    8.9815    8.7716 S   0  0  0  0  0  0  0  0  0  0  0  0
    9.7883    7.4330    8.4940 N   0  0  0  0  0  0  0  0  0  0  0  0
    7.3227    6.8306    8.5481 O   0  0  0  0  0  0  0  0  0  0  0  0
    8.6441    6.5742   10.5971 O   0  0  0  0  0  0  0  0  0  0  0  0
   10.1701    9.7164    7.5953 O   0  0  0  0  0  0  0  0  0  0  0  0
    8.6726    9.4554    9.5243 O   0  0  0  0  0  0  0  0  0  0  0  0
   12.2189   11.5082    0.9677 C   0  0  0  0  0  0  0  0  0  0  0  0
   12.4177   10.2042    1.1163 C   0  0  0  0  0  0  0  0  0  0  0  0
   12.4996   12.0165    0.0615 H   0  0  0  0  0  0  0  0  0  0  0  0
   11.7693   12.1197    1.7308 H   0  0  0  0  0  0  0  0  0  0  0  0
   12.0782    9.4038    2.2867 C   0  0  0  0  0  0  0  0  0  0  0  0
   12.8617    9.6449    0.3016 H   0  0  0  0  0  0  0  0  0  0  0  0
   12.1723    8.0136    2.2033 C   0  0  0  0  0  0  0  0  0  0  0  0
   11.8480    7.2136    3.2843 C   0  0  0  0  0  0  0  0  0  0  0  0
   11.4246    7.7754    4.4877 C   0  0  0  0  0  0  0  0  0  0  0  0
   11.6780    9.9607    3.5042 C   0  0  0  0  0  0  0  0  0  0  0  0
   11.3573    9.1632    4.5859 C   0  0  0  0  0  0  0  0  0  0  0  0
   11.6330   11.0326    3.6124 H   0  0  0  0  0  0  0  0  0  0  0  0
   11.0636    9.6079    5.5255 H   0  0  0  0  0  0  0  0  0  0  0  0
   11.9668    6.1399    3.2061 H   0  0  0  0  0  0  0  0  0  0  0  0
   12.5109    7.5587    1.2824 H   0  0  0  0  0  0  0  0  0  0  0  0
   10.9889    6.9053    5.6383 C   0  0  0  0  0  0  0  0  0  0  0  0
    9.5739    6.5495    5.6056 N   0  0  0  0  0  0  0  0  0  0  0  0
   11.1475    7.4149    6.5894 H   0  0  0  0  0  0  0  0  0  0  0  0
   11.5542    5.9699    5.6495 H   0  0  0  0  0  0  0  0  0  0  0  0
    9.1162    5.7987    4.5144 C   0  0  0  0  0  0  0  0  0  0  0  0
    8.6247    7.6358    5.7087 C   0  0  0  0  0  0  0  0  0  0  0  0
    8.2629    8.0066    4.2472 C   0  0  0  0  0  0  0  0  0  0  0  0
    9.0467    8.4690    6.2629 H   0  0  0  0  0  0  0  0  0  0  0  0
    7.7389    7.2794    6.2380 H   0  0  0  0  0  0  0  0  0  0  0  0
    8.7154    6.8438    3.4392 N   0  0  0  0  0  0  0  0  0  0  0  0
    8.7809    8.9077    3.9214 H   0  0  0  0  0  0  0  0  0  0  0  0
    7.1858    8.1325    4.1490 H   0  0  0  0  0  0  0  0  0  0  0  0
    8.1930    5.2691    4.7667 H   0  0  0  0  0  0  0  0  0  0  0  0
    9.8669    5.1169    4.1178 H   0  0  0  0  0  0  0  0  0  0  0  0
    7.7258    6.3725    2.4540 C   0  0  0  0  0  0  0  0  0  0  0  0
    8.1934    5.1470    1.6780 C   0  0  0  0  0  0  0  0  0  0  0  0
    7.5170    7.1947    1.7650 H   0  0  0  0  0  0  0  0  0  0  0  0
    6.8081    6.1254    2.9900 H   0  0  0  0  0  0  0  0  0  0  0  0
    9.4335    5.3912    0.8174 C   0  0  0  0  0  0  0  0  0  0  0  0
    7.3658    4.8472    1.0340 H   0  0  0  0  0  0  0  0  0  0  0  0
    8.3691    4.3230    2.3693 H   0  0  0  0  0  0  0  0  0  0  0  0
    9.7972    4.1452    0.0179 C   0  0  0  0  0  0  0  0  0  0  0  0
   10.2872    5.6655    1.4414 H   0  0  0  0  0  0  0  0  0  0  0  0
    9.2435    6.2192    0.1307 H   0  0  0  0  0  0  0  0  0  0  0  0
   10.0167    3.3159    0.6860 H   0  0  0  0  0  0  0  0  0  0  0  0
   10.6712    4.3279   -0.6019 H   0  0  0  0  0  0  0  0  0  0  0  0
    8.9730    3.8532   -0.6273 H   0  0  0  0  0  0  0  0  0  0  0  0
    9.5895    7.0986    2.9601 H   0  0  0  0  0  0  0  0  0  0  0  0
    1.1314    9.0148   12.0736 C   0  0  0  0  0  0  0  0  0  0  0  0
    1.9761    8.6928   11.1011 C   0  0  0  0  0  0  0  0  0  0  0  0
    1.3723    9.7812   12.7897 H   0  0  0  0  0  0  0  0  0  0  0  0
    0.1753    8.5363   12.2028 H   0  0  0  0  0  0  0  0  0  0  0  0
    1.7789    7.6749   10.0760 C   0  0  0  0  0  0  0  0  0  0  0  0
    2.9242    9.2107   11.0357 H   0  0  0  0  0  0  0  0  0  0  0  0
    2.8101    7.4277    9.1677 C   0  0  0  0  0  0  0  0  0  0  0  0
    2.6853    6.4543    8.1949 C   0  0  0  0  0  0  0  0  0  0  0  0
    1.5205    5.7012    8.0985 C   0  0  0  0  0  0  0  0  0  0  0  0
    0.6047    6.9270    9.9574 C   0  0  0  0  0  0  0  0  0  0  0  0
    0.4784    5.9556    8.9854 C   0  0  0  0  0  0  0  0  0  0  0  0
   -0.2182    7.1056   10.6318 H   0  0  0  0  0  0  0  0  0  0  0  0
   -0.4306    5.3768    8.9111 H   0  0  0  0  0  0  0  0  0  0  0  0
    3.4907    6.2850    7.4953 H   0  0  0  0  0  0  0  0  0  0  0  0
    3.7283    7.9918    9.2300 H   0  0  0  0  0  0  0  0  0  0  0  0
    1.4186    4.5877    7.0925 C   0  0  0  0  0  0  0  0  0  0  0  0
    1.2276    3.2945    7.7708 N   0  0  0  0  0  0  0  0  0  0  0  0
    2.3121    4.5980    6.4546 H   0  0  0  0  0  0  0  0  0  0  0  0
    0.5404    4.7335    6.4575 H   0  0  0  0  0  0  0  0  0  0  0  0
    2.1121    3.0530    8.8559 C   0  0  0  0  0  0  0  0  0  0  0  0
    1.3735    2.1315    6.9040 C   0  0  0  0  0  0  0  0  0  0  0  0
    2.7341    1.4822    7.2692 C   0  0  0  0  0  0  0  0  0  0  0  0
    1.3316    2.4309    5.8579 H   0  0  0  0  0  0  0  0  0  0  0  0
    0.5535    1.4343    7.0975 H   0  0  0  0  0  0  0  0  0  0  0  0
    3.3305    2.4231    8.2385 N   0  0  0  0  0  0  0  0  0  0  0  0
    3.3896    1.3637    6.4107 H   0  0  0  0  0  0  0  0  0  0  0  0
    2.5878    0.5154    7.7555 H   0  0  0  0  0  0  0  0  0  0  0  0
    1.6791    2.3071    9.5344 H   0  0  0  0  0  0  0  0  0  0  0  0
    2.3491    3.9661    9.3978 H   0  0  0  0  0  0  0  0  0  0  0  0
    4.3075    1.8400    9.1740 C   0  0  0  0  0  0  0  0  0  0  0  0
    4.7334    2.8339   10.2527 C   0  0  0  0  0  0  0  0  0  0  0  0
    5.1771    1.5378    8.5877 H   0  0  0  0  0  0  0  0  0  0  0  0
    3.8586    0.9548    9.6360 H   0  0  0  0  0  0  0  0  0  0  0  0
    5.2827    4.1502    9.6993 C   0  0  0  0  0  0  0  0  0  0  0  0
    5.5135    2.3570   10.8480 H   0  0  0  0  0  0  0  0  0  0  0  0
    3.8963    3.0384   10.9236 H   0  0  0  0  0  0  0  0  0  0  0  0
    5.7005    5.0788   10.8326 C   0  0  0  0  0  0  0  0  0  0  0  0
    4.5357    4.6647    9.0929 H   0  0  0  0  0  0  0  0  0  0  0  0
    6.1387    3.9506    9.0565 H   0  0  0  0  0  0  0  0  0  0  0  0
    4.8463    5.3265   11.4603 H   0  0  0  0  0  0  0  0  0  0  0  0
    6.1153    5.9942   10.4241 H   0  0  0  0  0  0  0  0  0  0  0  0
    6.4675    4.6171   11.4479 H   0  0  0  0  0  0  0  0  0  0  0  0
    3.8507    3.1291    7.6686 H   0  0  0  0  0  0  0  0  0  0  0  0
  1  3  1  0  0  0  0
  1  4  1  0  0  0  0
  1  5  1  0  0  0  0
  2  6  1  0  0  0  0
  2  7  1  0  0  0  0
  2  8  1  0  0  0  0
  1  9  1  0  0  0  0
  2 10  1  0  0  0  0
  9 11  1  0  0  0  0
 10 11  1  0  0  0  0
  9 12  2  0  0  0  0
  9 13  2  0  0  0  0
 10 14  2  0  0  0  0
 10 15  2  0  0  0  0
 16 18  1  0  0  0  0
 16 19  1  0  0  0  0
 16 20  1  0  0  0  0
 17 21  1  0  0  0  0
 17 22  1  0  0  0  0
 17 23  1  0  0  0  0
 16 24  1  0  0  0  0
 17 25  1  0  0  0  0
 24 26  1  0  0  0  0
 25 26  1  0  0  0  0
 24 27  2  0  0  0  0
 24 28  2  0  0  0  0
 25 29  2  0  0  0  0
 25 30  2  0  0  0  0
 31 32  2  0  0  0  0
 31 33  1  0  0  0  0
 31 34  1  0  0  0  0
 32 35  1  0  0  0  0
 32 36  1  0  0  0  0
 35 37  4  0  0  0  0
 37 38  4  0  0  0  0
 38 39  4  0  0  0  0
 35 40  4  0  0  0  0
 39 41  4  0  0  0  0
 40 41  4  0  0  0  0
 40 42  1  0  0  0  0
 41 43  1  0  0  0  0
 38 44  1  0  0  0  0
 37 45  1  0  0  0  0
 39 46  1  0  0  0  0
 46 47  1  0  0  0  0
 46 48  1  0  0  0  0
 46 49  1  0  0  0  0
 47 50  1  0  0  0  0
 47 51  1  0  0  0  0
 51 52  1  0  0  0  0
 51 53  1  0  0  0  0
 51 54  1  0  0  0  0
 50 55  1  0  0  0  0
 52 55  1  0  0  0  0
 52 56  1  0  0  0  0
 52 57  1  0  0  0  0
 50 58  1  0  0  0  0
 50 59  1  0  0  0  0
 55 60  1  0  0  0  0
 60 61  1  0  0  0  0
 60 62  1  0  0  0  0
 60 63  1  0  0  0  0
 61 64  1  0  0  0  0
 61 65  1  0  0  0  0
 61 66  1  0  0  0  0
 64 67  1  0  0  0  0
 64 68  1  0  0  0  0
 64 69  1  0  0  0  0
 67 70  1  0  0  0  0
 67 71  1  0  0  0  0
 67 72  1  0  0  0  0
 55 73  1  0  0  0  0
 74 75  2  0  0  0  0
 74 76  1  0  0  0  0
 74 77  1  0  0  0  0
 75 78  1  0  0  0  0
 75 79  1  0  0  0  0
 78 80  4  0  0  0  0
 80 81  4  0  0  0  0
 81 82  4  0  0  0  0
 78 83  4  0  0  0  0
 82 84  4  0  0  0  0
 83 84  4  0  0  0  0
 83 85  1  0  0  0  0
 84 86  1  0  0  0  0
 81 87  1  0  0  0  0
 80 88  1  0  0  0  0
 82 89  1  0  0  0  0
 89 90  1  0  0  0  0
 89 91  1  0  0  0  0
 89 92  1  0  0  0  0
 90 93  1  0  0  0  0
 90 94  1  0  0  0  0
 94 95  1  0  0  0  0
 94 96  1  0  0  0  0
 94 97  1  0  0  0  0
 93 98  1  0  0  0  0
 95 98  1  0  0  0  0
 95 99  1  0  0  0  0
 95100  1  0  0  0  0
 93101  1  0  0  0  0
 93102  1  0  0  0  0
 98103  1  0  0  0  0
103104  1  0  0  0  0
103105  1  0  0  0  0
103106  1  0  0  0  0
104107  1  0  0  0  0
104108  1  0  0  0  0
104109  1  0  0  0  0
107110  1  0  0  0  0
107111  1  0  0  0  0
107112  1  0  0  0  0
110113  1  0  0  0  0
110114  1  0  0  0  0
110115  1  0  0  0  0
 98116  1  0  0  0  0
M  END
