 xtb: 6.7.1 (edcfbbe)
          10212513483D

116116  0     0  0            999 V2000
    2.3706    7.5498    8.1549 C   0  0  0  0  0  0  0  0  0  0  0  0
    3.1735    3.0779    7.8335 C   0  0  0  0  0  0  0  0  0  0  0  0
    1.5524    7.2112    9.1359 F   0  0  0  0  0  0  0  0  0  0  0  0
    3.5258    7.9673    8.6859 F   0  0  0  0  0  0  0  0  0  0  0  0
    1.8250    8.6091    7.5396 F   0  0  0  0  0  0  0  0  0  0  0  0
    3.9117    2.0239    8.2100 F   0  0  0  0  0  0  0  0  0  0  0  0
    1.9722    2.9115    8.3564 F   0  0  0  0  0  0  0  0  0  0  0  0
    3.0990    3.0354    6.5053 F   0  0  0  0  0  0  0  0  0  0  0  0
    2.6729    6.1793    6.8791 S   0  0  0  0  0  0  0  0  0  0  0  0
    4.0706    4.6385    8.4137 S   0  0  0  0  0  0  0  0  0  0  0  0
    4.1231    5.6364    7.1860 N   0  0  0  0  0  0  0  0  0  0  0  0
    1.6567    5.2057    7.1042 O   0  0  0  0  0  0  0  0  0  0  0  0
    2.6299    6.8893    5.6307 O   0  0  0  0  0  0  0  0  0  0  0  0
    5.4006    4.1700    8.7020 O   0  0  0  0  0  0  0  0  0  0  0  0
    3.3474    5.1789    9.5217 O   0  0  0  0  0  0  0  0  0  0  0  0
    8.4942   10.3939    5.1520 C   0  0  0  0  0  0  0  0  0  0  0  0
    8.1551    7.9524    1.5521 C   0  0  0  0  0  0  0  0  0  0  0  0
    7.2242   10.6743    5.4419 F   0  0  0  0  0  0  0  0  0  0  0  0
    9.2068   10.6920    6.2513 F   0  0  0  0  0  0  0  0  0  0  0  0
    8.9098   11.2004    4.1915 F   0  0  0  0  0  0  0  0  0  0  0  0
    7.4029    7.6605    0.4747 F   0  0  0  0  0  0  0  0  0  0  0  0
    8.9574    8.9394    1.1931 F   0  0  0  0  0  0  0  0  0  0  0  0
    8.8762    6.8745    1.8193 F   0  0  0  0  0  0  0  0  0  0  0  0
    8.7615    8.5566    4.7705 S   0  0  0  0  0  0  0  0  0  0  0  0
    6.9429    8.4833    2.9053 S   0  0  0  0  0  0  0  0  0  0  0  0
    7.3839    7.9523    4.3132 N   0  0  0  0  0  0  0  0  0  0  0  0
    9.7481    8.5341    3.7431 O   0  0  0  0  0  0  0  0  0  0  0  0
    9.1191    8.0234    6.0573 O   0  0  0  0  0  0  0  0  0  0  0  0
    5.7071    7.8648    2.4968 O   0  0  0  0  0  0  0  0  0  0  0  0
    6.9561    9.9141    2.8197 O   0  0  0  0  0  0  0  0  0  0  0  0
   11.3412    9.7456   12.5723 C   0  0  0  0  0  0  0  0  0  0  0  0
   11.6707    8.4834   12.3255 C   0  0  0  0  0  0  0  0  0  0  0  0
   11.6197   10.2257   13.4940 H   0  0  0  0  0  0  0  0  0  0  0  0
   10.7853   10.3512   11.8772 H   0  0  0  0  0  0  0  0  0  0  0  0
   11.3468    7.7265   11.1225 C   0  0  0  0  0  0  0  0  0  0  0  0
   12.2206    7.9271   13.0743 H   0  0  0  0  0  0  0  0  0  0  0  0
   11.6017    6.3539   11.0918 C   0  0  0  0  0  0  0  0  0  0  0  0
   11.2936    5.5908    9.9808 C   0  0  0  0  0  0  0  0  0  0  0  0
   10.7180    6.1752    8.8574 C   0  0  0  0  0  0  0  0  0  0  0  0
   10.8041    8.3152    9.9783 C   0  0  0  0  0  0  0  0  0  0  0  0
   10.4950    7.5540    8.8670 C   0  0  0  0  0  0  0  0  0  0  0  0
   10.6405    9.3805    9.9435 H   0  0  0  0  0  0  0  0  0  0  0  0
   10.1136    8.0259    7.9735 H   0  0  0  0  0  0  0  0  0  0  0  0
   11.5221    4.5345    9.9840 H   0  0  0  0  0  0  0  0  0  0  0  0
   12.0516    5.8811   11.9531 H   0  0  0  0  0  0  0  0  0  0  0  0
   10.2862    5.3624    7.6609 C   0  0  0  0  0  0  0  0  0  0  0  0
    8.9271    4.8255    7.7435 N   0  0  0  0  0  0  0  0  0  0  0  0
   10.9540    4.5090    7.5214 H   0  0  0  0  0  0  0  0  0  0  0  0
   10.3164    5.9911    6.7693 H   0  0  0  0  0  0  0  0  0  0  0  0
    7.8806    5.7791    7.7828 C   0  0  0  0  0  0  0  0  0  0  0  0
    8.6429    3.9607    8.8698 C   0  0  0  0  0  0  0  0  0  0  0  0
    8.0147    4.8736    9.9525 C   0  0  0  0  0  0  0  0  0  0  0  0
    9.5383    3.4481    9.2131 H   0  0  0  0  0  0  0  0  0  0  0  0
    7.8994    3.2252    8.5568 H   0  0  0  0  0  0  0  0  0  0  0  0
    7.7746    6.1636    9.2626 N   0  0  0  0  0  0  0  0  0  0  0  0
    8.6670    5.0213   10.8130 H   0  0  0  0  0  0  0  0  0  0  0  0
    7.0557    4.4593   10.2577 H   0  0  0  0  0  0  0  0  0  0  0  0
    6.9229    5.3076    7.5438 H   0  0  0  0  0  0  0  0  0  0  0  0
    8.0744    6.6443    7.1485 H   0  0  0  0  0  0  0  0  0  0  0  0
    6.5422    6.8733    9.6706 C   0  0  0  0  0  0  0  0  0  0  0  0
    6.7686    8.3664    9.8624 C   0  0  0  0  0  0  0  0  0  0  0  0
    6.1927    6.4402   10.6090 H   0  0  0  0  0  0  0  0  0  0  0  0
    5.7689    6.6907    8.9230 H   0  0  0  0  0  0  0  0  0  0  0  0
    6.9711    9.1416    8.5617 C   0  0  0  0  0  0  0  0  0  0  0  0
    7.6190    8.5291   10.5322 H   0  0  0  0  0  0  0  0  0  0  0  0
    5.8808    8.7615   10.3585 H   0  0  0  0  0  0  0  0  0  0  0  0
    6.9797   10.6413    8.8363 C   0  0  0  0  0  0  0  0  0  0  0  0
    6.1585    8.8958    7.8771 H   0  0  0  0  0  0  0  0  0  0  0  0
    7.9049    8.8602    8.0751 H   0  0  0  0  0  0  0  0  0  0  0  0
    6.0467   10.9480    9.3032 H   0  0  0  0  0  0  0  0  0  0  0  0
    7.0981   11.1989    7.9141 H   0  0  0  0  0  0  0  0  0  0  0  0
    7.7994   10.9030    9.5017 H   0  0  0  0  0  0  0  0  0  0  0  0
    8.5868    6.7818    9.4276 H   0  0  0  0  0  0  0  0  0  0  0  0
    9.0749    4.6318    4.0135 C   0  0  0  0  0  0  0  0  0  0  0  0
    7.8033    4.7305    4.3815 C   0  0  0  0  0  0  0  0  0  0  0  0
    9.8506    4.4952    4.7466 H   0  0  0  0  0  0  0  0  0  0  0  0
    9.3986    4.6998    2.9912 H   0  0  0  0  0  0  0  0  0  0  0  0
    6.6511    4.9068    3.5078 C   0  0  0  0  0  0  0  0  0  0  0  0
    7.5594    4.6706    5.4317 H   0  0  0  0  0  0  0  0  0  0  0  0
    5.4071    5.1881    4.0724 C   0  0  0  0  0  0  0  0  0  0  0  0
    4.2789    5.3102    3.2850 C   0  0  0  0  0  0  0  0  0  0  0  0
    4.3586    5.1700    1.9043 C   0  0  0  0  0  0  0  0  0  0  0  0
    6.7255    4.7714    2.1215 C   0  0  0  0  0  0  0  0  0  0  0  0
    5.6009    4.9126    1.3360 C   0  0  0  0  0  0  0  0  0  0  0  0
    7.6689    4.5394    1.6533 H   0  0  0  0  0  0  0  0  0  0  0  0
    5.6845    4.8051    0.2632 H   0  0  0  0  0  0  0  0  0  0  0  0
    3.3336    5.5004    3.7720 H   0  0  0  0  0  0  0  0  0  0  0  0
    5.3074    5.3088    5.1415 H   0  0  0  0  0  0  0  0  0  0  0  0
    3.1356    5.2360    1.0220 C   0  0  0  0  0  0  0  0  0  0  0  0
    2.3839    6.4864    1.0055 N   0  0  0  0  0  0  0  0  0  0  0  0
    2.4326    4.4498    1.3067 H   0  0  0  0  0  0  0  0  0  0  0  0
    3.4371    5.0449   -0.0134 H   0  0  0  0  0  0  0  0  0  0  0  0
    3.1247    7.6967    0.9575 C   0  0  0  0  0  0  0  0  0  0  0  0
    1.3349    6.6825    1.9918 C   0  0  0  0  0  0  0  0  0  0  0  0
    1.7678    7.8744    2.8737 C   0  0  0  0  0  0  0  0  0  0  0  0
    1.1791    5.7803    2.5812 H   0  0  0  0  0  0  0  0  0  0  0  0
    0.3988    6.9160    1.4713 H   0  0  0  0  0  0  0  0  0  0  0  0
    3.0895    8.2771    2.3523 N   0  0  0  0  0  0  0  0  0  0  0  0
    1.8409    7.6043    3.9262 H   0  0  0  0  0  0  0  0  0  0  0  0
    1.0758    8.7083    2.7521 H   0  0  0  0  0  0  0  0  0  0  0  0
    2.6204    8.4225    0.3046 H   0  0  0  0  0  0  0  0  0  0  0  0
    4.1580    7.5492    0.6426 H   0  0  0  0  0  0  0  0  0  0  0  0
    3.3613    9.7268    2.3817 C   0  0  0  0  0  0  0  0  0  0  0  0
    3.1709   10.3584    3.7570 C   0  0  0  0  0  0  0  0  0  0  0  0
    2.6947   10.2072    1.6576 H   0  0  0  0  0  0  0  0  0  0  0  0
    4.3987    9.8654    2.0693 H   0  0  0  0  0  0  0  0  0  0  0  0
    4.0550    9.7452    4.8427 C   0  0  0  0  0  0  0  0  0  0  0  0
    2.1264   10.3016    4.0690 H   0  0  0  0  0  0  0  0  0  0  0  0
    3.4278   11.4144    3.6532 H   0  0  0  0  0  0  0  0  0  0  0  0
    4.0058   10.6033    6.1017 C   0  0  0  0  0  0  0  0  0  0  0  0
    5.0822    9.6795    4.4825 H   0  0  0  0  0  0  0  0  0  0  0  0
    3.7141    8.7382    5.0843 H   0  0  0  0  0  0  0  0  0  0  0  0
    2.9783   10.7239    6.4382 H   0  0  0  0  0  0  0  0  0  0  0  0
    4.4318   11.5849    5.9105 H   0  0  0  0  0  0  0  0  0  0  0  0
    4.5740   10.1367    6.8992 H   0  0  0  0  0  0  0  0  0  0  0  0
    3.8597    7.8190    2.8726 H   0  0  0  0  0  0  0  0  0  0  0  0
  1  3  1  0  0  0  0
  1  4  1  0  0  0  0
  1  5  1  0  0  0  0
  2  6  1  0  0  0  0
  2  7  1  0  0  0  0
  2  8  1  0  0  0  0
  1  9  1  0  0  0  0
  2 10  1  0  0  0  0
  9 11  1  0  0  0  0
 10 11  1  0  0  0  0
  9 12  2  0  0  0  0
  9 13  2  0  0  0  0
 10 14  2  0  0  0  0
 10 15  2  0  0  0  0
 16 18  1  0  0  0  0
 16 19  1  0  0  0  0
 16 20  1  0  0  0  0
 17 21  1  0  0  0  0
 17 22  1  0  0  0  0
 17 23  1  0  0  0  0
 16 24  1  0  0  0  0
 17 25  1  0  0  0  0
 24 26  1  0  0  0  0
 25 26  1  0  0  0  0
 24 27  2  0  0  0  0
 24 28  2  0  0  0  0
 25 29  2  0  0  0  0
 25 30  2  0  0  0  0
 31 32  2  0  0  0  0
 31 33  1  0  0  0  0
 31 34  1  0  0  0  0
 32 35  1  0  0  0  0
 32 36  1  0  0  0  0
 35 37  4  0  0  0  0
 37 38  4  0  0  0  0
 38 39  4  0  0  0  0
 35 40  4  0  0  0  0
 39 41  4  0  0  0  0
 40 41  4  0  0  0  0
 40 42  1  0  0  0  0
 41 43  1  0  0  0  0
 38 44  1  0  0  0  0
 37 45  1  0  0  0  0
 39 46  1  0  0  0  0
 46 47  1  0  0  0  0
 46 48  1  0  0  0  0
 46 49  1  0  0  0  0
 47 50  1  0  0  0  0
 47 51  1  0  0  0  0
 51 52  1  0  0  0  0
 51 53  1  0  0  0  0
 51 54  1  0  0  0  0
 50 55  1  0  0  0  0
 52 55  1  0  0  0  0
 52 56  1  0  0  0  0
 52 57  1  0  0  0  0
 50 58  1  0  0  0  0
 50 59  1  0  0  0  0
 55 60  1  0  0  0  0
 60 61  1  0  0  0  0
 60 62  1  0  0  0  0
 60 63  1  0  0  0  0
 61 64  1  0  0  0  0
 61 65  1  0  0  0  0
 61 66  1  0  0  0  0
 64 67  1  0  0  0  0
 64 68  1  0  0  0  0
 64 69  1  0  0  0  0
 67 70  1  0  0  0  0
 67 71  1  0  0  0  0
 67 72  1  0  0  0  0
 55 73  1  0  0  0  0
 74 75  2  0  0  0  0
 74 76  1  0  0  0  0
 74 77  1  0  0  0  0
 75 78  1  0  0  0  0
 75 79  1  0  0  0  0
 78 80  4  0  0  0  0
 80 81  4  0  0  0  0
 81 82  4  0  0  0  0
 78 83  4  0  0  0  0
 82 84  4  0  0  0  0
 83 84  4  0  0  0  0
 83 85  1  0  0  0  0
 84 86  1  0  0  0  0
 81 87  1  0  0  0  0
 80 88  1  0  0  0  0
 82 89  1  0  0  0  0
 89 90  1  0  0  0  0
 89 91  1  0  0  0  0
 89 92  1  0  0  0  0
 90 93  1  0  0  0  0
 90 94  1  0  0  0  0
 94 95  1  0  0  0  0
 94 96  1  0  0  0  0
 94 97  1  0  0  0  0
 93 98  1  0  0  0  0
 95 98  1  0  0  0  0
 95 99  1  0  0  0  0
 95100  1  0  0  0  0
 93101  1  0  0  0  0
 93102  1  0  0  0  0
 98103  1  0  0  0  0
103104  1  0  0  0  0
103105  1  0  0  0  0
103106  1  0  0  0  0
104107  1  0  0  0  0
104108  1  0  0  0  0
104109  1  0  0  0  0
107110  1  0  0  0  0
107111  1  0  0  0  0
107112  1  0  0  0  0
110113  1  0  0  0  0
110114  1  0  0  0  0
110115  1  0  0  0  0
 98116  1  0  0  0  0
M  END
