 xtb: 6.7.1 (edcfbbe)
          10212513553D

116116  0     0  0            999 V2000
    2.5223    4.9047    5.5915 C   0  0  0  0  0  0  0  0  0  0  0  0
    7.6485    5.3088    4.7218 C   0  0  0  0  0  0  0  0  0  0  0  0
    2.3268    4.3840    6.8055 F   0  0  0  0  0  0  0  0  0  0  0  0
    1.3425    5.1569    5.0506 F   0  0  0  0  0  0  0  0  0  0  0  0
    3.0422    3.8940    4.8665 F   0  0  0  0  0  0  0  0  0  0  0  0
    7.5859    5.9288    3.5469 F   0  0  0  0  0  0  0  0  0  0  0  0
    8.8910    5.4625    5.1954 F   0  0  0  0  0  0  0  0  0  0  0  0
    7.4855    3.9960    4.5001 F   0  0  0  0  0  0  0  0  0  0  0  0
    3.8301    6.2839    5.7514 S   0  0  0  0  0  0  0  0  0  0  0  0
    6.3471    5.9326    5.9476 S   0  0  0  0  0  0  0  0  0  0  0  0
    5.0584    5.4128    5.2056 N   0  0  0  0  0  0  0  0  0  0  0  0
    3.5819    7.3676    4.8487 O   0  0  0  0  0  0  0  0  0  0  0  0
    4.0688    6.4410    7.1591 O   0  0  0  0  0  0  0  0  0  0  0  0
    6.5308    7.3388    5.9910 O   0  0  0  0  0  0  0  0  0  0  0  0
    6.6795    5.1470    7.1114 O   0  0  0  0  0  0  0  0  0  0  0  0
    2.4672    7.2617    9.1131 C   0  0  0  0  0  0  0  0  0  0  0  0
    5.7997    9.5450    8.2917 C   0  0  0  0  0  0  0  0  0  0  0  0
    2.1068    5.9728    9.0128 F   0  0  0  0  0  0  0  0  0  0  0  0
    3.7068    7.2718    9.5909 F   0  0  0  0  0  0  0  0  0  0  0  0
    1.6745    7.7812   10.0463 F   0  0  0  0  0  0  0  0  0  0  0  0
    6.5425    9.9306    7.2576 F   0  0  0  0  0  0  0  0  0  0  0  0
    6.2441   10.2270    9.3582 F   0  0  0  0  0  0  0  0  0  0  0  0
    6.0200    8.2622    8.5353 F   0  0  0  0  0  0  0  0  0  0  0  0
    2.1825    8.1292    7.4558 S   0  0  0  0  0  0  0  0  0  0  0  0
    3.9815    9.9612    8.0283 S   0  0  0  0  0  0  0  0  0  0  0  0
    3.4816    8.8817    6.9914 N   0  0  0  0  0  0  0  0  0  0  0  0
    1.7914    7.0768    6.5429 O   0  0  0  0  0  0  0  0  0  0  0  0
    1.1245    9.0545    7.7183 O   0  0  0  0  0  0  0  0  0  0  0  0
    4.0464   11.2655    7.4283 O   0  0  0  0  0  0  0  0  0  0  0  0
    3.3787    9.8374    9.3140 O   0  0  0  0  0  0  0  0  0  0  0  0
   10.7035    3.5617   11.7734 C   0  0  0  0  0  0  0  0  0  0  0  0
   10.5439    2.3815   11.1872 C   0  0  0  0  0  0  0  0  0  0  0  0
   11.3287    3.6756   12.6420 H   0  0  0  0  0  0  0  0  0  0  0  0
   10.2192    4.4554   11.4195 H   0  0  0  0  0  0  0  0  0  0  0  0
    9.7156    2.1171   10.0163 C   0  0  0  0  0  0  0  0  0  0  0  0
   11.0368    1.5111   11.6025 H   0  0  0  0  0  0  0  0  0  0  0  0
    9.3669    0.8021    9.7028 C   0  0  0  0  0  0  0  0  0  0  0  0
    8.5493    0.5176    8.6253 C   0  0  0  0  0  0  0  0  0  0  0  0
    8.0509    1.5373    7.8197 C   0  0  0  0  0  0  0  0  0  0  0  0
    9.2559    3.1314    9.1752 C   0  0  0  0  0  0  0  0  0  0  0  0
    8.4409    2.8466    8.0958 C   0  0  0  0  0  0  0  0  0  0  0  0
    9.5469    4.1544    9.3498 H   0  0  0  0  0  0  0  0  0  0  0  0
    8.1216    3.6536    7.4532 H   0  0  0  0  0  0  0  0  0  0  0  0
    8.3083   -0.5127    8.4019 H   0  0  0  0  0  0  0  0  0  0  0  0
    9.7384   -0.0051   10.3178 H   0  0  0  0  0  0  0  0  0  0  0  0
    7.0790    1.2429    6.7023 C   0  0  0  0  0  0  0  0  0  0  0  0
    5.6652    1.3319    7.0776 N   0  0  0  0  0  0  0  0  0  0  0  0
    7.2337    0.2228    6.3392 H   0  0  0  0  0  0  0  0  0  0  0  0
    7.2326    1.9307    5.8713 H   0  0  0  0  0  0  0  0  0  0  0  0
    5.1074    2.6270    7.2424 C   0  0  0  0  0  0  0  0  0  0  0  0
    5.3088    0.6585    8.3077 C   0  0  0  0  0  0  0  0  0  0  0  0
    5.4041    1.7419    9.4108 C   0  0  0  0  0  0  0  0  0  0  0  0
    5.9612   -0.1898    8.4990 H   0  0  0  0  0  0  0  0  0  0  0  0
    4.2809    0.2974    8.2198 H   0  0  0  0  0  0  0  0  0  0  0  0
    5.4397    3.0274    8.6737 N   0  0  0  0  0  0  0  0  0  0  0  0
    6.3018    1.6217   10.0159 H   0  0  0  0  0  0  0  0  0  0  0  0
    4.5278    1.7174   10.0559 H   0  0  0  0  0  0  0  0  0  0  0  0
    4.0172    2.5669    7.1764 H   0  0  0  0  0  0  0  0  0  0  0  0
    5.4780    3.3714    6.5389 H   0  0  0  0  0  0  0  0  0  0  0  0
    4.6001    4.0994    9.2463 C   0  0  0  0  0  0  0  0  0  0  0  0
    4.9227    4.3643   10.7170 C   0  0  0  0  0  0  0  0  0  0  0  0
    3.5517    3.8111    9.1438 H   0  0  0  0  0  0  0  0  0  0  0  0
    4.7624    4.9995    8.6498 H   0  0  0  0  0  0  0  0  0  0  0  0
    6.3972    4.6347   11.0250 C   0  0  0  0  0  0  0  0  0  0  0  0
    4.5801    3.5308   11.3366 H   0  0  0  0  0  0  0  0  0  0  0  0
    4.3475    5.2421   11.0084 H   0  0  0  0  0  0  0  0  0  0  0  0
    6.9229    5.8880   10.3380 C   0  0  0  0  0  0  0  0  0  0  0  0
    7.0169    3.7730   10.7576 H   0  0  0  0  0  0  0  0  0  0  0  0
    6.4865    4.7592   12.1072 H   0  0  0  0  0  0  0  0  0  0  0  0
    6.9169    5.7935    9.2564 H   0  0  0  0  0  0  0  0  0  0  0  0
    7.9405    6.0919   10.6624 H   0  0  0  0  0  0  0  0  0  0  0  0
    6.3045    6.7416   10.5968 H   0  0  0  0  0  0  0  0  0  0  0  0
    6.4001    3.4028    8.6292 H   0  0  0  0  0  0  0  0  0  0  0  0
    5.3900    4.5699    1.5724 C   0  0  0  0  0  0  0  0  0  0  0  0
    4.6515    5.2066    0.6713 C   0  0  0  0  0  0  0  0  0  0  0  0
    6.2145    3.9447    1.2741 H   0  0  0  0  0  0  0  0  0  0  0  0
    5.2174    4.6590    2.6326 H   0  0  0  0  0  0  0  0  0  0  0  0
    3.5317    6.0878    0.9828 C   0  0  0  0  0  0  0  0  0  0  0  0
    4.8874    5.1166   -0.3827 H   0  0  0  0  0  0  0  0  0  0  0  0
    3.0936    7.0211    0.0419 C   0  0  0  0  0  0  0  0  0  0  0  0
    2.0945    7.9225    0.3540 C   0  0  0  0  0  0  0  0  0  0  0  0
    1.4847    7.8981    1.6052 C   0  0  0  0  0  0  0  0  0  0  0  0
    2.8812    6.0376    2.2154 C   0  0  0  0  0  0  0  0  0  0  0  0
    1.8710    6.9262    2.5206 C   0  0  0  0  0  0  0  0  0  0  0  0
    3.1840    5.3068    2.9443 H   0  0  0  0  0  0  0  0  0  0  0  0
    1.3947    6.8837    3.4861 H   0  0  0  0  0  0  0  0  0  0  0  0
    1.7875    8.6608   -0.3741 H   0  0  0  0  0  0  0  0  0  0  0  0
    3.5632    7.0583   -0.9311 H   0  0  0  0  0  0  0  0  0  0  0  0
    0.5257    8.9798    2.0196 C   0  0  0  0  0  0  0  0  0  0  0  0
    1.1273    9.9794    2.9069 N   0  0  0  0  0  0  0  0  0  0  0  0
   -0.3355    8.5553    2.5366 H   0  0  0  0  0  0  0  0  0  0  0  0
    0.1642    9.5136    1.1324 H   0  0  0  0  0  0  0  0  0  0  0  0
    2.5526   10.1902    2.8095 C   0  0  0  0  0  0  0  0  0  0  0  0
    0.7969    9.9173    4.3293 C   0  0  0  0  0  0  0  0  0  0  0  0
    1.9818   10.6128    4.9803 C   0  0  0  0  0  0  0  0  0  0  0  0
    0.7223    8.8917    4.7139 H   0  0  0  0  0  0  0  0  0  0  0  0
   -0.1457   10.4353    4.5169 H   0  0  0  0  0  0  0  0  0  0  0  0
    3.1077   10.0762    4.1833 N   0  0  0  0  0  0  0  0  0  0  0  0
    2.0889   10.3830    6.0364 H   0  0  0  0  0  0  0  0  0  0  0  0
    1.9419   11.6945    4.8322 H   0  0  0  0  0  0  0  0  0  0  0  0
    2.7366   11.2244    2.4757 H   0  0  0  0  0  0  0  0  0  0  0  0
    3.0340    9.4985    2.1153 H   0  0  0  0  0  0  0  0  0  0  0  0
    4.4104   10.7518    4.3812 C   0  0  0  0  0  0  0  0  0  0  0  0
    5.5912    9.7952    4.2475 C   0  0  0  0  0  0  0  0  0  0  0  0
    4.4194   11.1593    5.3951 H   0  0  0  0  0  0  0  0  0  0  0  0
    4.4808   11.5765    3.6662 H   0  0  0  0  0  0  0  0  0  0  0  0
    5.7076    9.0360    2.9246 C   0  0  0  0  0  0  0  0  0  0  0  0
    5.5293    9.0599    5.0485 H   0  0  0  0  0  0  0  0  0  0  0  0
    6.5002   10.3762    4.4096 H   0  0  0  0  0  0  0  0  0  0  0  0
    5.9557    9.9311    1.7137 C   0  0  0  0  0  0  0  0  0  0  0  0
    4.8250    8.4127    2.7728 H   0  0  0  0  0  0  0  0  0  0  0  0
    6.5480    8.3489    3.0253 H   0  0  0  0  0  0  0  0  0  0  0  0
    5.1332   10.6197    1.5369 H   0  0  0  0  0  0  0  0  0  0  0  0
    6.0809    9.3219    0.8221 H   0  0  0  0  0  0  0  0  0  0  0  0
    6.8625   10.5135    1.8575 H   0  0  0  0  0  0  0  0  0  0  0  0
    3.2400    9.0780    4.4625 H   0  0  0  0  0  0  0  0  0  0  0  0
  1  3  1  0  0  0  0
  1  4  1  0  0  0  0
  1  5  1  0  0  0  0
  2  6  1  0  0  0  0
  2  7  1  0  0  0  0
  2  8  1  0  0  0  0
  1  9  1  0  0  0  0
  2 10  1  0  0  0  0
  9 11  1  0  0  0  0
 10 11  1  0  0  0  0
  9 12  2  0  0  0  0
  9 13  2  0  0  0  0
 10 14  2  0  0  0  0
 10 15  2  0  0  0  0
 16 18  1  0  0  0  0
 16 19  1  0  0  0  0
 16 20  1  0  0  0  0
 17 21  1  0  0  0  0
 17 22  1  0  0  0  0
 17 23  1  0  0  0  0
 16 24  1  0  0  0  0
 17 25  1  0  0  0  0
 24 26  1  0  0  0  0
 25 26  1  0  0  0  0
 24 27  2  0  0  0  0
 24 28  2  0  0  0  0
 25 29  2  0  0  0  0
 25 30  2  0  0  0  0
 31 32  2  0  0  0  0
 31 33  1  0  0  0  0
 31 34  1  0  0  0  0
 32 35  1  0  0  0  0
 32 36  1  0  0  0  0
 35 37  4  0  0  0  0
 37 38  4  0  0  0  0
 38 39  4  0  0  0  0
 35 40  4  0  0  0  0
 39 41  4  0  0  0  0
 40 41  4  0  0  0  0
 40 42  1  0  0  0  0
 41 43  1  0  0  0  0
 38 44  1  0  0  0  0
 37 45  1  0  0  0  0
 39 46  1  0  0  0  0
 46 47  1  0  0  0  0
 46 48  1  0  0  0  0
 46 49  1  0  0  0  0
 47 50  1  0  0  0  0
 47 51  1  0  0  0  0
 51 52  1  0  0  0  0
 51 53  1  0  0  0  0
 51 54  1  0  0  0  0
 50 55  1  0  0  0  0
 52 55  1  0  0  0  0
 52 56  1  0  0  0  0
 52 57  1  0  0  0  0
 50 58  1  0  0  0  0
 50 59  1  0  0  0  0
 55 60  1  0  0  0  0
 60 61  1  0  0  0  0
 60 62  1  0  0  0  0
 60 63  1  0  0  0  0
 61 64  1  0  0  0  0
 61 65  1  0  0  0  0
 61 66  1  0  0  0  0
 64 67  1  0  0  0  0
 64 68  1  0  0  0  0
 64 69  1  0  0  0  0
 67 70  1  0  0  0  0
 67 71  1  0  0  0  0
 67 72  1  0  0  0  0
 55 73  1  0  0  0  0
 74 75  2  0  0  0  0
 74 76  1  0  0  0  0
 74 77  1  0  0  0  0
 75 78  1  0  0  0  0
 75 79  1  0  0  0  0
 78 80  4  0  0  0  0
 80 81  4  0  0  0  0
 81 82  4  0  0  0  0
 78 83  4  0  0  0  0
 82 84  4  0  0  0  0
 83 84  4  0  0  0  0
 83 85  1  0  0  0  0
 84 86  1  0  0  0  0
 81 87  1  0  0  0  0
 80 88  1  0  0  0  0
 82 89  1  0  0  0  0
 89 90  1  0  0  0  0
 89 91  1  0  0  0  0
 89 92  1  0  0  0  0
 90 93  1  0  0  0  0
 90 94  1  0  0  0  0
 94 95  1  0  0  0  0
 94 96  1  0  0  0  0
 94 97  1  0  0  0  0
 93 98  1  0  0  0  0
 95 98  1  0  0  0  0
 95 99  1  0  0  0  0
 95100  1  0  0  0  0
 93101  1  0  0  0  0
 93102  1  0  0  0  0
 98103  1  0  0  0  0
103104  1  0  0  0  0
103105  1  0  0  0  0
103106  1  0  0  0  0
104107  1  0  0  0  0
104108  1  0  0  0  0
104109  1  0  0  0  0
107110  1  0  0  0  0
107111  1  0  0  0  0
107112  1  0  0  0  0
110113  1  0  0  0  0
110114  1  0  0  0  0
110115  1  0  0  0  0
 98116  1  0  0  0  0
M  END
