 xtb: 6.7.1 (edcfbbe)
          10212513453D

116115  0     0  0            999 V2000
    1.0683   11.7017    7.0859 C   0  0  0  0  0  0  0  0  0  0  0  0
    5.6940   10.5961    8.6462 C   0  0  0  0  0  0  0  0  0  0  0  0
    1.6534   12.6895    6.4192 F   0  0  0  0  0  0  0  0  0  0  0  0
    0.2573   11.0640    6.2318 F   0  0  0  0  0  0  0  0  0  0  0  0
    0.3104   12.2295    8.0398 F   0  0  0  0  0  0  0  0  0  0  0  0
    5.9741   11.5307    7.7572 F   0  0  0  0  0  0  0  0  0  0  0  0
    6.7426   10.3944    9.4345 F   0  0  0  0  0  0  0  0  0  0  0  0
    5.4103    9.4510    8.0176 F   0  0  0  0  0  0  0  0  0  0  0  0
    2.3318   10.5078    7.7907 S   0  0  0  0  0  0  0  0  0  0  0  0
    4.1806   10.9655    9.7065 S   0  0  0  0  0  0  0  0  0  0  0  0
    3.0955   11.5150    8.7281 N   0  0  0  0  0  0  0  0  0  0  0  0
    1.5718    9.4972    8.4714 O   0  0  0  0  0  0  0  0  0  0  0  0
    3.0807   10.0430    6.6598 O   0  0  0  0  0  0  0  0  0  0  0  0
    4.5629   11.9204   10.6855 O   0  0  0  0  0  0  0  0  0  0  0  0
    3.9009    9.6264   10.2277 O   0  0  0  0  0  0  0  0  0  0  0  0
    9.6066    4.9452    8.8825 C   0  0  0  0  0  0  0  0  0  0  0  0
    9.4569    8.3187    5.3089 C   0  0  0  0  0  0  0  0  0  0  0  0
   10.7317    5.3126    9.4805 F   0  0  0  0  0  0  0  0  0  0  0  0
    8.5928    5.2369    9.7015 F   0  0  0  0  0  0  0  0  0  0  0  0
    9.6297    3.6139    8.7468 F   0  0  0  0  0  0  0  0  0  0  0  0
    9.6271    7.2182    4.5647 F   0  0  0  0  0  0  0  0  0  0  0  0
    9.0870    9.2904    4.4648 F   0  0  0  0  0  0  0  0  0  0  0  0
   10.6190    8.6614    5.8394 F   0  0  0  0  0  0  0  0  0  0  0  0
    9.4115    5.7877    7.2107 S   0  0  0  0  0  0  0  0  0  0  0  0
    8.1406    8.0548    6.6291 S   0  0  0  0  0  0  0  0  0  0  0  0
    8.8481    7.1724    7.7107 N   0  0  0  0  0  0  0  0  0  0  0  0
   10.7220    5.8325    6.6551 O   0  0  0  0  0  0  0  0  0  0  0  0
    8.4458    4.9956    6.4918 O   0  0  0  0  0  0  0  0  0  0  0  0
    7.0830    7.3571    5.9263 O   0  0  0  0  0  0  0  0  0  0  0  0
    7.8286    9.3569    7.0973 O   0  0  0  0  0  0  0  0  0  0  0  0
    4.4493    0.1337   10.3689 C   0  0  0  0  0  0  0  0  0  0  0  0
    5.3041    0.8789    9.6788 C   0  0  0  0  0  0  0  0  0  0  0  0
    4.5025   -0.9412   10.3519 H   0  0  0  0  0  0  0  0  0  0  0  0
    3.6612    0.5551   10.9696 H   0  0  0  0  0  0  0  0  0  0  0  0
    5.3255    2.3362    9.6182 C   0  0  0  0  0  0  0  0  0  0  0  0
    6.0610    0.3939    9.0750 H   0  0  0  0  0  0  0  0  0  0  0  0
    6.0551    2.9648    8.6076 C   0  0  0  0  0  0  0  0  0  0  0  0
    6.0855    4.3420    8.4970 C   0  0  0  0  0  0  0  0  0  0  0  0
    5.4065    5.1361    9.4130 C   0  0  0  0  0  0  0  0  0  0  0  0
    4.6488    3.1412   10.5354 C   0  0  0  0  0  0  0  0  0  0  0  0
    4.6925    4.5188   10.4354 C   0  0  0  0  0  0  0  0  0  0  0  0
    4.0995    2.6877   11.3459 H   0  0  0  0  0  0  0  0  0  0  0  0
    4.1743    5.1207   11.1686 H   0  0  0  0  0  0  0  0  0  0  0  0
    6.6597    4.8003    7.7061 H   0  0  0  0  0  0  0  0  0  0  0  0
    6.6057    2.3689    7.8948 H   0  0  0  0  0  0  0  0  0  0  0  0
    5.4266    6.6436    9.2946 C   0  0  0  0  0  0  0  0  0  0  0  0
    4.0825    7.1630    9.0817 N   0  0  0  0  0  0  0  0  0  0  0  0
    6.0699    6.9446    8.4633 H   0  0  0  0  0  0  0  0  0  0  0  0
    5.8333    7.0805   10.2092 H   0  0  0  0  0  0  0  0  0  0  0  0
    3.3921    7.6877   10.0323 C   0  0  0  0  0  0  0  0  0  0  0  0
    3.5672    7.1107    7.7300 C   0  0  0  0  0  0  0  0  0  0  0  0
    3.1658    5.6786    7.3342 C   0  0  0  0  0  0  0  0  0  0  0  0
    4.3337    7.4820    7.0474 H   0  0  0  0  0  0  0  0  0  0  0  0
    2.6952    7.7616    7.6710 H   0  0  0  0  0  0  0  0  0  0  0  0
    2.2050    5.1462    8.2718 N   0  0  0  0  0  0  0  0  0  0  0  0
    4.0764    5.0707    7.2408 H   0  0  0  0  0  0  0  0  0  0  0  0
    2.6801    5.7348    6.3577 H   0  0  0  0  0  0  0  0  0  0  0  0
    2.3680    7.9765    9.8458 H   0  0  0  0  0  0  0  0  0  0  0  0
    3.7330    7.6116   11.0530 H   0  0  0  0  0  0  0  0  0  0  0  0
    1.3448    4.0737    7.8209 C   0  0  0  0  0  0  0  0  0  0  0  0
    1.9523    2.6610    7.7714 C   0  0  0  0  0  0  0  0  0  0  0  0
    0.9554    4.3447    6.8357 H   0  0  0  0  0  0  0  0  0  0  0  0
    0.4986    4.0494    8.5145 H   0  0  0  0  0  0  0  0  0  0  0  0
    2.9424    2.4247    6.6322 C   0  0  0  0  0  0  0  0  0  0  0  0
    1.1284    1.9518    7.6645 H   0  0  0  0  0  0  0  0  0  0  0  0
    2.4473    2.4519    8.7223 H   0  0  0  0  0  0  0  0  0  0  0  0
    3.2840    0.9454    6.4935 C   0  0  0  0  0  0  0  0  0  0  0  0
    3.8641    2.9767    6.8236 H   0  0  0  0  0  0  0  0  0  0  0  0
    2.5066    2.7865    5.6959 H   0  0  0  0  0  0  0  0  0  0  0  0
    2.3926    0.3665    6.2635 H   0  0  0  0  0  0  0  0  0  0  0  0
    3.7067    0.5709    7.4225 H   0  0  0  0  0  0  0  0  0  0  0  0
    4.0095    0.7893    5.6982 H   0  0  0  0  0  0  0  0  0  0  0  0
    2.6563    4.8870    9.1425 H   0  0  0  0  0  0  0  0  0  0  0  0
    5.7150   10.5188   -0.7459 C   0  0  0  0  0  0  0  0  0  0  0  0
    6.0311   10.1850    0.4992 C   0  0  0  0  0  0  0  0  0  0  0  0
    5.3054   11.4866   -0.9766 H   0  0  0  0  0  0  0  0  0  0  0  0
    5.8451    9.8514   -1.5815 H   0  0  0  0  0  0  0  0  0  0  0  0
    6.5869    8.9101    0.9373 C   0  0  0  0  0  0  0  0  0  0  0  0
    5.8626   10.8957    1.2978 H   0  0  0  0  0  0  0  0  0  0  0  0
    6.6638    8.6408    2.3050 C   0  0  0  0  0  0  0  0  0  0  0  0
    7.1674    7.4378    2.7714 C   0  0  0  0  0  0  0  0  0  0  0  0
    7.6276    6.4644    1.8809 C   0  0  0  0  0  0  0  0  0  0  0  0
    7.0636    7.9391    0.0542 C   0  0  0  0  0  0  0  0  0  0  0  0
    7.5702    6.7401    0.5184 C   0  0  0  0  0  0  0  0  0  0  0  0
    7.0523    8.1266   -1.0079 H   0  0  0  0  0  0  0  0  0  0  0  0
    7.9404    6.0100   -0.1876 H   0  0  0  0  0  0  0  0  0  0  0  0
    7.2684    7.2968    3.8391 H   0  0  0  0  0  0  0  0  0  0  0  0
    6.3352    9.3802    3.0202 H   0  0  0  0  0  0  0  0  0  0  0  0
    8.1150    5.1278    2.3798 C   0  0  0  0  0  0  0  0  0  0  0  0
    7.0410    4.1941    2.7661 N   0  0  0  0  0  0  0  0  0  0  0  0
    8.7688    5.2702    3.2405 H   0  0  0  0  0  0  0  0  0  0  0  0
    8.6917    4.6372    1.5891 H   0  0  0  0  0  0  0  0  0  0  0  0
    5.7468    4.4956    2.2991 C   0  0  0  0  0  0  0  0  0  0  0  0
    6.8388    3.9466    4.1816 C   0  0  0  0  0  0  0  0  0  0  0  0
    5.6985    4.9000    4.6242 C   0  0  0  0  0  0  0  0  0  0  0  0
    7.7390    4.1191    4.7677 H   0  0  0  0  0  0  0  0  0  0  0  0
    6.5316    2.9044    4.3034 H   0  0  0  0  0  0  0  0  0  0  0  0
    5.1734    5.4510    3.3505 N   0  0  0  0  0  0  0  0  0  0  0  0
    6.0891    5.6952    5.2601 H   0  0  0  0  0  0  0  0  0  0  0  0
    4.9080    4.3591    5.1410 H   0  0  0  0  0  0  0  0  0  0  0  0
    5.1128    3.6021    2.3093 H   0  0  0  0  0  0  0  0  0  0  0  0
    5.7373    4.9603    1.3130 H   0  0  0  0  0  0  0  0  0  0  0  0
    3.7271    5.7155    3.2723 C   0  0  0  0  0  0  0  0  0  0  0  0
    3.4074    7.1532    3.6750 C   0  0  0  0  0  0  0  0  0  0  0  0
    3.1971    5.0045    3.9106 H   0  0  0  0  0  0  0  0  0  0  0  0
    3.4048    5.5490    2.2403 H   0  0  0  0  0  0  0  0  0  0  0  0
    1.8993    7.4002    3.7369 C   0  0  0  0  0  0  0  0  0  0  0  0
    3.8450    7.8328    2.9398 H   0  0  0  0  0  0  0  0  0  0  0  0
    3.8469    7.3843    4.6463 H   0  0  0  0  0  0  0  0  0  0  0  0
    1.6028    8.8785    3.9550 C   0  0  0  0  0  0  0  0  0  0  0  0
    1.4669    6.8198    4.5545 H   0  0  0  0  0  0  0  0  0  0  0  0
    1.4354    7.0638    2.8049 H   0  0  0  0  0  0  0  0  0  0  0  0
    0.5380    9.0367    4.0956 H   0  0  0  0  0  0  0  0  0  0  0  0
    1.9265    9.4607    3.0957 H   0  0  0  0  0  0  0  0  0  0  0  0
    2.1236    9.2447    4.8356 H   0  0  0  0  0  0  0  0  0  0  0  0
    5.6848    6.3482    3.1884 H   0  0  0  0  0  0  0  0  0  0  0  0
  1  3  1  0  0  0  0
  1  4  1  0  0  0  0
  1  5  1  0  0  0  0
  2  6  1  0  0  0  0
  2  7  1  0  0  0  0
  2  8  1  0  0  0  0
  1  9  1  0  0  0  0
  2 10  1  0  0  0  0
  9 11  1  0  0  0  0
 10 11  1  0  0  0  0
  9 12  2  0  0  0  0
  9 13  2  0  0  0  0
 10 14  2  0  0  0  0
 10 15  2  0  0  0  0
 16 18  1  0  0  0  0
 16 19  1  0  0  0  0
 16 20  1  0  0  0  0
 17 21  1  0  0  0  0
 17 22  1  0  0  0  0
 17 23  1  0  0  0  0
 16 24  1  0  0  0  0
 17 25  1  0  0  0  0
 24 26  1  0  0  0  0
 25 26  1  0  0  0  0
 24 27  2  0  0  0  0
 24 28  2  0  0  0  0
 25 29  2  0  0  0  0
 25 30  2  0  0  0  0
 31 32  2  0  0  0  0
 31 33  1  0  0  0  0
 31 34  1  0  0  0  0
 32 35  1  0  0  0  0
 32 36  1  0  0  0  0
 35 37  4  0  0  0  0
 37 38  4  0  0  0  0
 38 39  4  0  0  0  0
 35 40  4  0  0  0  0
 39 41  4  0  0  0  0
 40 41  4  0  0  0  0
 40 42  1  0  0  0  0
 41 43  1  0  0  0  0
 38 44  1  0  0  0  0
 37 45  1  0  0  0  0
 39 46  1  0  0  0  0
 46 47  1  0  0  0  0
 46 48  1  0  0  0  0
 46 49  1  0  0  0  0
 47 50  2  0  0  0  0
 47 51  1  0  0  0  0
 51 52  1  0  0  0  0
 51 53  1  0  0  0  0
 51 54  1  0  0  0  0
 52 55  1  0  0  0  0
 52 56  1  0  0  0  0
 52 57  1  0  0  0  0
 50 58  1  0  0  0  0
 50 59  1  0  0  0  0
 55 60  1  0  0  0  0
 60 61  1  0  0  0  0
 60 62  1  0  0  0  0
 60 63  1  0  0  0  0
 61 64  1  0  0  0  0
 61 65  1  0  0  0  0
 61 66  1  0  0  0  0
 64 67  1  0  0  0  0
 64 68  1  0  0  0  0
 64 69  1  0  0  0  0
 67 70  1  0  0  0  0
 67 71  1  0  0  0  0
 67 72  1  0  0  0  0
 55 73  1  0  0  0  0
 74 75  2  0  0  0  0
 74 76  1  0  0  0  0
 74 77  1  0  0  0  0
 75 78  1  0  0  0  0
 75 79  1  0  0  0  0
 78 80  4  0  0  0  0
 80 81  4  0  0  0  0
 81 82  4  0  0  0  0
 78 83  4  0  0  0  0
 82 84  4  0  0  0  0
 83 84  4  0  0  0  0
 83 85  1  0  0  0  0
 84 86  1  0  0  0  0
 81 87  1  0  0  0  0
 80 88  1  0  0  0  0
 82 89  1  0  0  0  0
 89 90  1  0  0  0  0
 89 91  1  0  0  0  0
 89 92  1  0  0  0  0
 90 93  1  0  0  0  0
 90 94  1  0  0  0  0
 94 95  1  0  0  0  0
 94 96  1  0  0  0  0
 94 97  1  0  0  0  0
 93 98  1  0  0  0  0
 95 98  1  0  0  0  0
 95 99  1  0  0  0  0
 95100  1  0  0  0  0
 93101  1  0  0  0  0
 93102  1  0  0  0  0
 98103  1  0  0  0  0
103104  1  0  0  0  0
103105  1  0  0  0  0
103106  1  0  0  0  0
104107  1  0  0  0  0
104108  1  0  0  0  0
104109  1  0  0  0  0
107110  1  0  0  0  0
107111  1  0  0  0  0
107112  1  0  0  0  0
110113  1  0  0  0  0
110114  1  0  0  0  0
110115  1  0  0  0  0
 98116  1  0  0  0  0
M  END
