 xtb: 6.7.1 (edcfbbe)
          10212513383D

116116  0     0  0            999 V2000
    6.8343   10.6088    7.0515 C   0  0  0  0  0  0  0  0  0  0  0  0
    4.6857    7.1841    9.0800 C   0  0  0  0  0  0  0  0  0  0  0  0
    7.7031   11.0589    6.1218 F   0  0  0  0  0  0  0  0  0  0  0  0
    6.5952   11.6200    7.8617 F   0  0  0  0  0  0  0  0  0  0  0  0
    7.4883    9.6389    7.7053 F   0  0  0  0  0  0  0  0  0  0  0  0
    4.0261    6.2637    8.3742 F   0  0  0  0  0  0  0  0  0  0  0  0
    5.9889    6.9119    8.9970 F   0  0  0  0  0  0  0  0  0  0  0  0
    4.3205    7.0689   10.3527 F   0  0  0  0  0  0  0  0  0  0  0  0
    5.3369    9.8868    6.1344 S   0  0  0  0  0  0  0  0  0  0  0  0
    4.3151    8.8861    8.3639 S   0  0  0  0  0  0  0  0  0  0  0  0
    4.9124    8.5987    6.9160 N   0  0  0  0  0  0  0  0  0  0  0  0
    4.3775   10.9372    6.0570 O   0  0  0  0  0  0  0  0  0  0  0  0
    5.9490    9.4848    4.8862 O   0  0  0  0  0  0  0  0  0  0  0  0
    5.1140    9.8322    9.0714 O   0  0  0  0  0  0  0  0  0  0  0  0
    2.8976    9.0071    8.4378 O   0  0  0  0  0  0  0  0  0  0  0  0
    3.8930    3.0957    9.6962 C   0  0  0  0  0  0  0  0  0  0  0  0
    6.1747    1.0968    6.2170 C   0  0  0  0  0  0  0  0  0  0  0  0
    2.7376    3.6187   10.1265 F   0  0  0  0  0  0  0  0  0  0  0  0
    4.1660    2.0598   10.4746 F   0  0  0  0  0  0  0  0  0  0  0  0
    4.8295    4.0244    9.8616 F   0  0  0  0  0  0  0  0  0  0  0  0
    6.0583   -0.0835    6.7974 F   0  0  0  0  0  0  0  0  0  0  0  0
    5.1732    1.2569    5.3422 F   0  0  0  0  0  0  0  0  0  0  0  0
    7.3011    1.0645    5.4799 F   0  0  0  0  0  0  0  0  0  0  0  0
    3.7059    2.6211    7.8782 S   0  0  0  0  0  0  0  0  0  0  0  0
    6.2568    2.5772    7.4123 S   0  0  0  0  0  0  0  0  0  0  0  0
    4.9032    3.3418    7.1301 N   0  0  0  0  0  0  0  0  0  0  0  0
    3.7935    1.1995    7.7895 O   0  0  0  0  0  0  0  0  0  0  0  0
    2.4536    3.2074    7.4803 O   0  0  0  0  0  0  0  0  0  0  0  0
    7.3637    3.3334    6.8913 O   0  0  0  0  0  0  0  0  0  0  0  0
    6.3619    2.0486    8.7274 O   0  0  0  0  0  0  0  0  0  0  0  0
    1.2098   11.1179    6.2887 C   0  0  0  0  0  0  0  0  0  0  0  0
    0.7593    9.8928    6.5253 C   0  0  0  0  0  0  0  0  0  0  0  0
    0.6838   11.9831    6.6556 H   0  0  0  0  0  0  0  0  0  0  0  0
    2.1437   11.3005    5.7875 H   0  0  0  0  0  0  0  0  0  0  0  0
    1.4071    8.6600    6.0955 C   0  0  0  0  0  0  0  0  0  0  0  0
   -0.1420    9.7540    7.1102 H   0  0  0  0  0  0  0  0  0  0  0  0
    1.1432    7.4724    6.7848 C   0  0  0  0  0  0  0  0  0  0  0  0
    1.7227    6.2777    6.4029 C   0  0  0  0  0  0  0  0  0  0  0  0
    2.5441    6.2230    5.2757 C   0  0  0  0  0  0  0  0  0  0  0  0
    2.2843    8.6124    5.0120 C   0  0  0  0  0  0  0  0  0  0  0  0
    2.8292    7.4100    4.6004 C   0  0  0  0  0  0  0  0  0  0  0  0
    2.5438    9.5208    4.4931 H   0  0  0  0  0  0  0  0  0  0  0  0
    3.5178    7.3969    3.7664 H   0  0  0  0  0  0  0  0  0  0  0  0
    1.5842    5.3827    6.9907 H   0  0  0  0  0  0  0  0  0  0  0  0
    0.5130    7.5073    7.6602 H   0  0  0  0  0  0  0  0  0  0  0  0
    3.1054    4.9077    4.7926 C   0  0  0  0  0  0  0  0  0  0  0  0
    2.1769    4.0937    3.9984 N   0  0  0  0  0  0  0  0  0  0  0  0
    3.4199    4.3021    5.6413 H   0  0  0  0  0  0  0  0  0  0  0  0
    3.9708    5.0973    4.1597 H   0  0  0  0  0  0  0  0  0  0  0  0
    1.5344    4.7839    2.9603 C   0  0  0  0  0  0  0  0  0  0  0  0
    1.1012    3.4434    4.7190 C   0  0  0  0  0  0  0  0  0  0  0  0
   -0.1209    4.3993    4.6064 C   0  0  0  0  0  0  0  0  0  0  0  0
    1.4024    3.2499    5.7480 H   0  0  0  0  0  0  0  0  0  0  0  0
    0.8798    2.4907    4.2325 H   0  0  0  0  0  0  0  0  0  0  0  0
    0.3082    5.4320    3.6310 N   0  0  0  0  0  0  0  0  0  0  0  0
   -0.3554    4.8601    5.5631 H   0  0  0  0  0  0  0  0  0  0  0  0
   -0.9989    3.8807    4.2218 H   0  0  0  0  0  0  0  0  0  0  0  0
    1.1395    4.0935    2.2067 H   0  0  0  0  0  0  0  0  0  0  0  0
    2.1584    5.5471    2.4971 H   0  0  0  0  0  0  0  0  0  0  0  0
   -0.7121    5.9117    2.6901 C   0  0  0  0  0  0  0  0  0  0  0  0
   -1.8087    6.7341    3.3615 C   0  0  0  0  0  0  0  0  0  0  0  0
   -1.1496    5.0404    2.1948 H   0  0  0  0  0  0  0  0  0  0  0  0
   -0.2114    6.5203    1.9346 H   0  0  0  0  0  0  0  0  0  0  0  0
   -1.3038    8.0111    4.0375 C   0  0  0  0  0  0  0  0  0  0  0  0
   -2.3321    6.1209    4.0968 H   0  0  0  0  0  0  0  0  0  0  0  0
   -2.5284    7.0030    2.5861 H   0  0  0  0  0  0  0  0  0  0  0  0
   -0.5643    8.9512    3.0925 C   0  0  0  0  0  0  0  0  0  0  0  0
   -0.6589    7.7700    4.8846 H   0  0  0  0  0  0  0  0  0  0  0  0
   -2.1720    8.5340    4.4402 H   0  0  0  0  0  0  0  0  0  0  0  0
    0.3945    8.5430    2.7816 H   0  0  0  0  0  0  0  0  0  0  0  0
   -0.3640    9.8902    3.5999 H   0  0  0  0  0  0  0  0  0  0  0  0
   -1.1634    9.1587    2.2082 H   0  0  0  0  0  0  0  0  0  0  0  0
    0.7084    6.2169    4.1778 H   0  0  0  0  0  0  0  0  0  0  0  0
   13.0452    3.7561    2.5626 C   0  0  0  0  0  0  0  0  0  0  0  0
   11.9868    4.2773    1.9538 C   0  0  0  0  0  0  0  0  0  0  0  0
   14.0241    3.7998    2.1177 H   0  0  0  0  0  0  0  0  0  0  0  0
   12.9800    3.2525    3.5121 H   0  0  0  0  0  0  0  0  0  0  0  0
   10.6156    4.2656    2.4496 C   0  0  0  0  0  0  0  0  0  0  0  0
   12.1109    4.7437    0.9835 H   0  0  0  0  0  0  0  0  0  0  0  0
   10.2862    3.9673    3.7734 C   0  0  0  0  0  0  0  0  0  0  0  0
    8.9705    3.9809    4.2023 C   0  0  0  0  0  0  0  0  0  0  0  0
    7.9390    4.2834    3.3126 C   0  0  0  0  0  0  0  0  0  0  0  0
    9.5760    4.5591    1.5650 C   0  0  0  0  0  0  0  0  0  0  0  0
    8.2611    4.5595    1.9869 C   0  0  0  0  0  0  0  0  0  0  0  0
    9.8060    4.7770    0.5319 H   0  0  0  0  0  0  0  0  0  0  0  0
    7.4719    4.7714    1.2786 H   0  0  0  0  0  0  0  0  0  0  0  0
    8.7223    3.7106    5.2193 H   0  0  0  0  0  0  0  0  0  0  0  0
   11.0652    3.7264    4.4788 H   0  0  0  0  0  0  0  0  0  0  0  0
    6.5161    4.3934    3.7895 C   0  0  0  0  0  0  0  0  0  0  0  0
    6.1368    5.7379    4.2702 N   0  0  0  0  0  0  0  0  0  0  0  0
    6.3353    3.6854    4.5978 H   0  0  0  0  0  0  0  0  0  0  0  0
    5.8456    4.1469    2.9569 H   0  0  0  0  0  0  0  0  0  0  0  0
    7.0018    6.8035    3.9270 C   0  0  0  0  0  0  0  0  0  0  0  0
    5.9902    5.9094    5.7085 C   0  0  0  0  0  0  0  0  0  0  0  0
    7.3708    6.3695    6.2174 C   0  0  0  0  0  0  0  0  0  0  0  0
    5.6581    4.9991    6.2015 H   0  0  0  0  0  0  0  0  0  0  0  0
    5.2640    6.7061    5.8863 H   0  0  0  0  0  0  0  0  0  0  0  0
    8.1020    6.7775    4.9858 N   0  0  0  0  0  0  0  0  0  0  0  0
    7.8846    5.5523    6.7216 H   0  0  0  0  0  0  0  0  0  0  0  0
    7.2618    7.2199    6.8852 H   0  0  0  0  0  0  0  0  0  0  0  0
    6.4843    7.7614    4.0534 H   0  0  0  0  0  0  0  0  0  0  0  0
    7.4239    6.7032    2.9292 H   0  0  0  0  0  0  0  0  0  0  0  0
    8.8823    8.0184    5.1294 C   0  0  0  0  0  0  0  0  0  0  0  0
    9.9582    8.1913    4.0585 C   0  0  0  0  0  0  0  0  0  0  0  0
    9.3658    7.9874    6.1076 H   0  0  0  0  0  0  0  0  0  0  0  0
    8.1809    8.8525    5.1125 H   0  0  0  0  0  0  0  0  0  0  0  0
    9.4798    8.7045    2.6974 C   0  0  0  0  0  0  0  0  0  0  0  0
   10.4914    7.2452    3.9215 H   0  0  0  0  0  0  0  0  0  0  0  0
   10.6758    8.9148    4.4482 H   0  0  0  0  0  0  0  0  0  0  0  0
    8.7082   10.0168    2.7887 C   0  0  0  0  0  0  0  0  0  0  0  0
    8.8728    7.9531    2.1922 H   0  0  0  0  0  0  0  0  0  0  0  0
   10.3685    8.8581    2.0808 H   0  0  0  0  0  0  0  0  0  0  0  0
    8.5299   10.4089    1.7909 H   0  0  0  0  0  0  0  0  0  0  0  0
    9.2802   10.7532    3.3467 H   0  0  0  0  0  0  0  0  0  0  0  0
    7.7459    9.8926    3.2777 H   0  0  0  0  0  0  0  0  0  0  0  0
    8.7281    5.9960    4.7270 H   0  0  0  0  0  0  0  0  0  0  0  0
  1  3  1  0  0  0  0
  1  4  1  0  0  0  0
  1  5  1  0  0  0  0
  2  6  1  0  0  0  0
  2  7  1  0  0  0  0
  2  8  1  0  0  0  0
  1  9  1  0  0  0  0
  2 10  1  0  0  0  0
  9 11  1  0  0  0  0
 10 11  1  0  0  0  0
  9 12  2  0  0  0  0
  9 13  2  0  0  0  0
 10 14  2  0  0  0  0
 10 15  2  0  0  0  0
 16 18  1  0  0  0  0
 16 19  1  0  0  0  0
 16 20  1  0  0  0  0
 17 21  1  0  0  0  0
 17 22  1  0  0  0  0
 17 23  1  0  0  0  0
 16 24  1  0  0  0  0
 17 25  1  0  0  0  0
 24 26  1  0  0  0  0
 25 26  1  0  0  0  0
 24 27  2  0  0  0  0
 24 28  2  0  0  0  0
 25 29  2  0  0  0  0
 25 30  2  0  0  0  0
 31 32  2  0  0  0  0
 31 33  1  0  0  0  0
 31 34  1  0  0  0  0
 32 35  1  0  0  0  0
 32 36  1  0  0  0  0
 35 37  4  0  0  0  0
 37 38  4  0  0  0  0
 38 39  4  0  0  0  0
 35 40  4  0  0  0  0
 39 41  4  0  0  0  0
 40 41  4  0  0  0  0
 40 42  1  0  0  0  0
 41 43  1  0  0  0  0
 38 44  1  0  0  0  0
 37 45  1  0  0  0  0
 39 46  1  0  0  0  0
 46 47  1  0  0  0  0
 46 48  1  0  0  0  0
 46 49  1  0  0  0  0
 47 50  1  0  0  0  0
 47 51  1  0  0  0  0
 51 52  1  0  0  0  0
 51 53  1  0  0  0  0
 51 54  1  0  0  0  0
 50 55  1  0  0  0  0
 52 55  1  0  0  0  0
 52 56  1  0  0  0  0
 52 57  1  0  0  0  0
 50 58  1  0  0  0  0
 50 59  1  0  0  0  0
 55 60  1  0  0  0  0
 60 61  1  0  0  0  0
 60 62  1  0  0  0  0
 60 63  1  0  0  0  0
 61 64  1  0  0  0  0
 61 65  1  0  0  0  0
 61 66  1  0  0  0  0
 64 67  1  0  0  0  0
 64 68  1  0  0  0  0
 64 69  1  0  0  0  0
 67 70  1  0  0  0  0
 67 71  1  0  0  0  0
 67 72  1  0  0  0  0
 55 73  1  0  0  0  0
 74 75  2  0  0  0  0
 74 76  1  0  0  0  0
 74 77  1  0  0  0  0
 75 78  1  0  0  0  0
 75 79  1  0  0  0  0
 78 80  4  0  0  0  0
 80 81  4  0  0  0  0
 81 82  4  0  0  0  0
 78 83  4  0  0  0  0
 82 84  4  0  0  0  0
 83 84  4  0  0  0  0
 83 85  1  0  0  0  0
 84 86  1  0  0  0  0
 81 87  1  0  0  0  0
 80 88  1  0  0  0  0
 82 89  1  0  0  0  0
 89 90  1  0  0  0  0
 89 91  1  0  0  0  0
 89 92  1  0  0  0  0
 90 93  1  0  0  0  0
 90 94  1  0  0  0  0
 94 95  1  0  0  0  0
 94 96  1  0  0  0  0
 94 97  1  0  0  0  0
 93 98  1  0  0  0  0
 95 98  1  0  0  0  0
 95 99  1  0  0  0  0
 95100  1  0  0  0  0
 93101  1  0  0  0  0
 93102  1  0  0  0  0
 98103  1  0  0  0  0
103104  1  0  0  0  0
103105  1  0  0  0  0
103106  1  0  0  0  0
104107  1  0  0  0  0
104108  1  0  0  0  0
104109  1  0  0  0  0
107110  1  0  0  0  0
107111  1  0  0  0  0
107112  1  0  0  0  0
110113  1  0  0  0  0
110114  1  0  0  0  0
110115  1  0  0  0  0
 98116  1  0  0  0  0
M  END
