 xtb: 6.7.1 (edcfbbe)
          10212513383D

116116  0     0  0            999 V2000
    2.1518    9.8402    2.3528 C   0  0  0  0  0  0  0  0  0  0  0  0
    6.2635    8.6837    1.2830 C   0  0  0  0  0  0  0  0  0  0  0  0
    1.6211    8.6711    2.7353 F   0  0  0  0  0  0  0  0  0  0  0  0
    1.3276   10.7941    2.8023 F   0  0  0  0  0  0  0  0  0  0  0  0
    2.1320    9.8887    1.0295 F   0  0  0  0  0  0  0  0  0  0  0  0
    5.8904    9.2349    0.1465 F   0  0  0  0  0  0  0  0  0  0  0  0
    6.9390    9.5593    2.0231 F   0  0  0  0  0  0  0  0  0  0  0  0
    7.1388    7.7092    0.9711 F   0  0  0  0  0  0  0  0  0  0  0  0
    3.8955   10.1568    3.0392 S   0  0  0  0  0  0  0  0  0  0  0  0
    4.8750    7.8511    2.2664 S   0  0  0  0  0  0  0  0  0  0  0  0
    4.4851    8.7518    3.5029 N   0  0  0  0  0  0  0  0  0  0  0  0
    4.6072   10.6618    1.9089 O   0  0  0  0  0  0  0  0  0  0  0  0
    3.6878   11.0068    4.1640 O   0  0  0  0  0  0  0  0  0  0  0  0
    5.5200    6.6570    2.7596 O   0  0  0  0  0  0  0  0  0  0  0  0
    3.7893    7.6376    1.3607 O   0  0  0  0  0  0  0  0  0  0  0  0
   11.2347    2.7538    7.6099 C   0  0  0  0  0  0  0  0  0  0  0  0
    8.5047    4.9715   10.7596 C   0  0  0  0  0  0  0  0  0  0  0  0
   10.8665    1.8548    6.6912 F   0  0  0  0  0  0  0  0  0  0  0  0
   12.3699    3.3096    7.1968 F   0  0  0  0  0  0  0  0  0  0  0  0
   11.4710    2.1047    8.7422 F   0  0  0  0  0  0  0  0  0  0  0  0
    8.3779    5.6369   11.9094 F   0  0  0  0  0  0  0  0  0  0  0  0
    7.2687    4.7567   10.3014 F   0  0  0  0  0  0  0  0  0  0  0  0
    9.0641    3.7992   11.0327 F   0  0  0  0  0  0  0  0  0  0  0  0
    9.9015    4.0492    7.8181 S   0  0  0  0  0  0  0  0  0  0  0  0
    9.5390    5.9722    9.5238 S   0  0  0  0  0  0  0  0  0  0  0  0
   10.5677    4.9481    8.9299 N   0  0  0  0  0  0  0  0  0  0  0  0
    9.7961    4.6793    6.5274 O   0  0  0  0  0  0  0  0  0  0  0  0
    8.7191    3.3650    8.2480 O   0  0  0  0  0  0  0  0  0  0  0  0
   10.1361    7.0139   10.2816 O   0  0  0  0  0  0  0  0  0  0  0  0
    8.5585    6.3798    8.5302 O   0  0  0  0  0  0  0  0  0  0  0  0
    0.3142    2.0440    8.6561 C   0  0  0  0  0  0  0  0  0  0  0  0
    1.3939    1.7216    7.9542 C   0  0  0  0  0  0  0  0  0  0  0  0
   -0.5461    1.3990    8.6895 H   0  0  0  0  0  0  0  0  0  0  0  0
    0.2426    2.9576    9.2208 H   0  0  0  0  0  0  0  0  0  0  0  0
    2.6065    2.5236    7.8361 C   0  0  0  0  0  0  0  0  0  0  0  0
    1.4013    0.7978    7.3879 H   0  0  0  0  0  0  0  0  0  0  0  0
    2.9277    3.5478    8.7257 C   0  0  0  0  0  0  0  0  0  0  0  0
    4.0720    4.3052    8.5526 C   0  0  0  0  0  0  0  0  0  0  0  0
    4.9279    4.0798    7.4819 C   0  0  0  0  0  0  0  0  0  0  0  0
    3.5040    2.2556    6.7956 C   0  0  0  0  0  0  0  0  0  0  0  0
    4.6437    3.0250    6.6192 C   0  0  0  0  0  0  0  0  0  0  0  0
    3.3219    1.3947    6.1630 H   0  0  0  0  0  0  0  0  0  0  0  0
    5.3417    2.7993    5.8260 H   0  0  0  0  0  0  0  0  0  0  0  0
    4.3191    5.0721    9.2708 H   0  0  0  0  0  0  0  0  0  0  0  0
    2.2873    3.7417    9.5712 H   0  0  0  0  0  0  0  0  0  0  0  0
    6.1497    4.9213    7.2520 C   0  0  0  0  0  0  0  0  0  0  0  0
    6.0440    5.6247    5.9634 N   0  0  0  0  0  0  0  0  0  0  0  0
    7.0179    4.2588    7.2402 H   0  0  0  0  0  0  0  0  0  0  0  0
    6.2907    5.6124    8.0860 H   0  0  0  0  0  0  0  0  0  0  0  0
    7.2722    5.7463    5.2434 C   0  0  0  0  0  0  0  0  0  0  0  0
    5.6312    7.0201    6.0872 C   0  0  0  0  0  0  0  0  0  0  0  0
    6.9343    7.8280    6.2921 C   0  0  0  0  0  0  0  0  0  0  0  0
    4.9217    7.1536    6.8992 H   0  0  0  0  0  0  0  0  0  0  0  0
    5.1634    7.3343    5.1503 H   0  0  0  0  0  0  0  0  0  0  0  0
    8.0012    6.8632    5.9408 N   0  0  0  0  0  0  0  0  0  0  0  0
    7.0739    8.1472    7.3242 H   0  0  0  0  0  0  0  0  0  0  0  0
    6.9516    8.6897    5.6281 H   0  0  0  0  0  0  0  0  0  0  0  0
    7.0349    6.0568    4.2204 H   0  0  0  0  0  0  0  0  0  0  0  0
    7.8873    4.8474    5.2654 H   0  0  0  0  0  0  0  0  0  0  0  0
    9.2149    7.3886    5.2867 C   0  0  0  0  0  0  0  0  0  0  0  0
    9.0191    7.9625    3.8896 C   0  0  0  0  0  0  0  0  0  0  0  0
    9.9237    6.5574    5.2565 H   0  0  0  0  0  0  0  0  0  0  0  0
    9.6249    8.1579    5.9463 H   0  0  0  0  0  0  0  0  0  0  0  0
   10.3566    8.4921    3.3653 C   0  0  0  0  0  0  0  0  0  0  0  0
    8.2975    8.7790    3.9027 H   0  0  0  0  0  0  0  0  0  0  0  0
    8.6507    7.1974    3.2064 H   0  0  0  0  0  0  0  0  0  0  0  0
   10.2292    9.0527    1.9550 C   0  0  0  0  0  0  0  0  0  0  0  0
   11.0883    7.6818    3.3700 H   0  0  0  0  0  0  0  0  0  0  0  0
   10.7227    9.2738    4.0337 H   0  0  0  0  0  0  0  0  0  0  0  0
    9.8757    8.2853    1.2718 H   0  0  0  0  0  0  0  0  0  0  0  0
   11.1933    9.4113    1.6035 H   0  0  0  0  0  0  0  0  0  0  0  0
    9.5261    9.8802    1.9355 H   0  0  0  0  0  0  0  0  0  0  0  0
    8.3377    6.4620    6.8445 H   0  0  0  0  0  0  0  0  0  0  0  0
    3.1864   12.0846    8.4779 C   0  0  0  0  0  0  0  0  0  0  0  0
    2.8108   11.5187    7.3386 C   0  0  0  0  0  0  0  0  0  0  0  0
    3.4222   13.1332    8.5333 H   0  0  0  0  0  0  0  0  0  0  0  0
    3.2558   11.5358    9.4027 H   0  0  0  0  0  0  0  0  0  0  0  0
    2.4804   10.1094    7.1606 C   0  0  0  0  0  0  0  0  0  0  0  0
    2.7327   12.1069    6.4348 H   0  0  0  0  0  0  0  0  0  0  0  0
    2.9868    9.1112    7.9908 C   0  0  0  0  0  0  0  0  0  0  0  0
    2.7115    7.7809    7.7419 C   0  0  0  0  0  0  0  0  0  0  0  0
    1.9186    7.4086    6.6636 C   0  0  0  0  0  0  0  0  0  0  0  0
    1.6448    9.7307    6.1098 C   0  0  0  0  0  0  0  0  0  0  0  0
    1.3562    8.4021    5.8724 C   0  0  0  0  0  0  0  0  0  0  0  0
    1.2254   10.4941    5.4738 H   0  0  0  0  0  0  0  0  0  0  0  0
    0.7071    8.1222    5.0583 H   0  0  0  0  0  0  0  0  0  0  0  0
    3.1139    7.0169    8.3934 H   0  0  0  0  0  0  0  0  0  0  0  0
    3.6274    9.3749    8.8186 H   0  0  0  0  0  0  0  0  0  0  0  0
    1.7026    5.9469    6.3698 C   0  0  0  0  0  0  0  0  0  0  0  0
    1.4716    5.7023    4.9504 N   0  0  0  0  0  0  0  0  0  0  0  0
    0.8084    5.5973    6.8993 H   0  0  0  0  0  0  0  0  0  0  0  0
    2.5649    5.3820    6.7501 H   0  0  0  0  0  0  0  0  0  0  0  0
    1.2675    4.3591    4.5916 C   0  0  0  0  0  0  0  0  0  0  0  0
    2.5256    6.1369    4.0533 C   0  0  0  0  0  0  0  0  0  0  0  0
    3.5119    4.9565    3.9940 C   0  0  0  0  0  0  0  0  0  0  0  0
    2.9986    7.0552    4.3873 H   0  0  0  0  0  0  0  0  0  0  0  0
    2.0970    6.3218    3.0674 H   0  0  0  0  0  0  0  0  0  0  0  0
    2.6618    3.7651    4.2594 N   0  0  0  0  0  0  0  0  0  0  0  0
    4.2885    5.0498    4.7551 H   0  0  0  0  0  0  0  0  0  0  0  0
    3.9905    4.9077    3.0211 H   0  0  0  0  0  0  0  0  0  0  0  0
    0.6942    4.3021    3.6612 H   0  0  0  0  0  0  0  0  0  0  0  0
    0.7853    3.7682    5.3719 H   0  0  0  0  0  0  0  0  0  0  0  0
    2.6132    2.7964    3.1503 C   0  0  0  0  0  0  0  0  0  0  0  0
    3.9291    2.0438    2.9766 C   0  0  0  0  0  0  0  0  0  0  0  0
    2.3750    3.3484    2.2398 H   0  0  0  0  0  0  0  0  0  0  0  0
    1.8080    2.0836    3.3506 H   0  0  0  0  0  0  0  0  0  0  0  0
    3.8931    1.1217    1.7542 C   0  0  0  0  0  0  0  0  0  0  0  0
    4.1234    1.4417    3.8663 H   0  0  0  0  0  0  0  0  0  0  0  0
    4.7500    2.7523    2.8606 H   0  0  0  0  0  0  0  0  0  0  0  0
    3.8743    1.8824    0.4332 C   0  0  0  0  0  0  0  0  0  0  0  0
    3.0217    0.4663    1.8151 H   0  0  0  0  0  0  0  0  0  0  0  0
    4.7816    0.4898    1.7817 H   0  0  0  0  0  0  0  0  0  0  0  0
    3.9866    1.1877   -0.3945 H   0  0  0  0  0  0  0  0  0  0  0  0
    4.6934    2.5958    0.3922 H   0  0  0  0  0  0  0  0  0  0  0  0
    2.9405    2.4192    0.2896 H   0  0  0  0  0  0  0  0  0  0  0  0
    3.0223    3.2869    5.1083 H   0  0  0  0  0  0  0  0  0  0  0  0
  1  3  1  0  0  0  0
  1  4  1  0  0  0  0
  1  5  1  0  0  0  0
  2  6  1  0  0  0  0
  2  7  1  0  0  0  0
  2  8  1  0  0  0  0
  1  9  1  0  0  0  0
  2 10  1  0  0  0  0
  9 11  1  0  0  0  0
 10 11  1  0  0  0  0
  9 12  2  0  0  0  0
  9 13  2  0  0  0  0
 10 14  2  0  0  0  0
 10 15  2  0  0  0  0
 16 18  1  0  0  0  0
 16 19  1  0  0  0  0
 16 20  1  0  0  0  0
 17 21  1  0  0  0  0
 17 22  1  0  0  0  0
 17 23  1  0  0  0  0
 16 24  1  0  0  0  0
 17 25  1  0  0  0  0
 24 26  1  0  0  0  0
 25 26  1  0  0  0  0
 24 27  2  0  0  0  0
 24 28  2  0  0  0  0
 25 29  2  0  0  0  0
 25 30  2  0  0  0  0
 31 32  2  0  0  0  0
 31 33  1  0  0  0  0
 31 34  1  0  0  0  0
 32 35  1  0  0  0  0
 32 36  1  0  0  0  0
 35 37  4  0  0  0  0
 37 38  4  0  0  0  0
 38 39  4  0  0  0  0
 35 40  4  0  0  0  0
 39 41  4  0  0  0  0
 40 41  4  0  0  0  0
 40 42  1  0  0  0  0
 41 43  1  0  0  0  0
 38 44  1  0  0  0  0
 37 45  1  0  0  0  0
 39 46  1  0  0  0  0
 46 47  1  0  0  0  0
 46 48  1  0  0  0  0
 46 49  1  0  0  0  0
 47 50  1  0  0  0  0
 47 51  1  0  0  0  0
 51 52  1  0  0  0  0
 51 53  1  0  0  0  0
 51 54  1  0  0  0  0
 50 55  1  0  0  0  0
 52 55  1  0  0  0  0
 52 56  1  0  0  0  0
 52 57  1  0  0  0  0
 50 58  1  0  0  0  0
 50 59  1  0  0  0  0
 55 60  1  0  0  0  0
 60 61  1  0  0  0  0
 60 62  1  0  0  0  0
 60 63  1  0  0  0  0
 61 64  1  0  0  0  0
 61 65  1  0  0  0  0
 61 66  1  0  0  0  0
 64 67  1  0  0  0  0
 64 68  1  0  0  0  0
 64 69  1  0  0  0  0
 67 70  1  0  0  0  0
 67 71  1  0  0  0  0
 67 72  1  0  0  0  0
 55 73  1  0  0  0  0
 74 75  2  0  0  0  0
 74 76  1  0  0  0  0
 74 77  1  0  0  0  0
 75 78  1  0  0  0  0
 75 79  1  0  0  0  0
 78 80  4  0  0  0  0
 80 81  4  0  0  0  0
 81 82  4  0  0  0  0
 78 83  4  0  0  0  0
 82 84  4  0  0  0  0
 83 84  4  0  0  0  0
 83 85  1  0  0  0  0
 84 86  1  0  0  0  0
 81 87  1  0  0  0  0
 80 88  1  0  0  0  0
 82 89  1  0  0  0  0
 89 90  1  0  0  0  0
 89 91  1  0  0  0  0
 89 92  1  0  0  0  0
 90 93  1  0  0  0  0
 90 94  1  0  0  0  0
 94 95  1  0  0  0  0
 94 96  1  0  0  0  0
 94 97  1  0  0  0  0
 93 98  1  0  0  0  0
 95 98  1  0  0  0  0
 95 99  1  0  0  0  0
 95100  1  0  0  0  0
 93101  1  0  0  0  0
 93102  1  0  0  0  0
 98103  1  0  0  0  0
103104  1  0  0  0  0
103105  1  0  0  0  0
103106  1  0  0  0  0
104107  1  0  0  0  0
104108  1  0  0  0  0
104109  1  0  0  0  0
107110  1  0  0  0  0
107111  1  0  0  0  0
107112  1  0  0  0  0
110113  1  0  0  0  0
110114  1  0  0  0  0
110115  1  0  0  0  0
 98116  1  0  0  0  0
M  END
