 xtb: 6.7.1 (edcfbbe)
          10212513443D

116116  0     0  0            999 V2000
    1.2093    6.1646    4.1477 C   0  0  0  0  0  0  0  0  0  0  0  0
    3.9477    1.9041    5.5673 C   0  0  0  0  0  0  0  0  0  0  0  0
    0.6441    5.8055    5.2971 F   0  0  0  0  0  0  0  0  0  0  0  0
    1.6850    7.4020    4.2734 F   0  0  0  0  0  0  0  0  0  0  0  0
    0.2150    6.2448    3.2545 F   0  0  0  0  0  0  0  0  0  0  0  0
    2.7656    1.3014    5.6719 F   0  0  0  0  0  0  0  0  0  0  0  0
    4.4769    1.5328    4.3896 F   0  0  0  0  0  0  0  0  0  0  0  0
    4.7319    1.3215    6.4998 F   0  0  0  0  0  0  0  0  0  0  0  0
    2.4993    4.9321    3.4998 S   0  0  0  0  0  0  0  0  0  0  0  0
    3.7179    3.7980    5.6587 S   0  0  0  0  0  0  0  0  0  0  0  0
    2.5998    3.7800    4.6025 N   0  0  0  0  0  0  0  0  0  0  0  0
    1.8613    4.3853    2.3452 O   0  0  0  0  0  0  0  0  0  0  0  0
    3.6959    5.6668    3.2499 O   0  0  0  0  0  0  0  0  0  0  0  0
    5.0114    4.3260    5.2385 O   0  0  0  0  0  0  0  0  0  0  0  0
    3.4587    3.9159    7.0666 O   0  0  0  0  0  0  0  0  0  0  0  0
    2.8344    5.7315    8.5463 C   0  0  0  0  0  0  0  0  0  0  0  0
    7.4312    5.2535    8.2618 C   0  0  0  0  0  0  0  0  0  0  0  0
    3.5584    4.9331    9.3220 F   0  0  0  0  0  0  0  0  0  0  0  0
    2.6057    6.8293    9.3002 F   0  0  0  0  0  0  0  0  0  0  0  0
    1.6537    5.1934    8.3146 F   0  0  0  0  0  0  0  0  0  0  0  0
    8.4220    4.3389    8.3849 F   0  0  0  0  0  0  0  0  0  0  0  0
    8.0700    6.4355    8.1336 F   0  0  0  0  0  0  0  0  0  0  0  0
    6.8252    5.2911    9.4612 F   0  0  0  0  0  0  0  0  0  0  0  0
    3.7814    6.3087    7.0001 S   0  0  0  0  0  0  0  0  0  0  0  0
    6.2792    4.8168    6.7380 S   0  0  0  0  0  0  0  0  0  0  0  0
    5.2727    5.9375    7.2357 N   0  0  0  0  0  0  0  0  0  0  0  0
    3.1184    5.9182    5.7840 O   0  0  0  0  0  0  0  0  0  0  0  0
    3.6977    7.7445    7.2271 O   0  0  0  0  0  0  0  0  0  0  0  0
    6.1522    3.4242    7.1320 O   0  0  0  0  0  0  0  0  0  0  0  0
    7.2584    5.1838    5.7653 O   0  0  0  0  0  0  0  0  0  0  0  0
   11.7848    6.7564    8.9928 C   0  0  0  0  0  0  0  0  0  0  0  0
   11.5866    7.9995    8.5742 C   0  0  0  0  0  0  0  0  0  0  0  0
   12.5979    6.1598    8.6167 H   0  0  0  0  0  0  0  0  0  0  0  0
   11.1375    6.2786    9.7069 H   0  0  0  0  0  0  0  0  0  0  0  0
   10.5002    8.8708    9.0044 C   0  0  0  0  0  0  0  0  0  0  0  0
   12.2420    8.4208    7.8222 H   0  0  0  0  0  0  0  0  0  0  0  0
    9.8238    8.6860   10.2104 C   0  0  0  0  0  0  0  0  0  0  0  0
    8.7616    9.4963   10.5561 C   0  0  0  0  0  0  0  0  0  0  0  0
    8.3268   10.5114    9.7072 C   0  0  0  0  0  0  0  0  0  0  0  0
   10.1130    9.9372    8.1936 C   0  0  0  0  0  0  0  0  0  0  0  0
    9.0404   10.7392    8.5358 C   0  0  0  0  0  0  0  0  0  0  0  0
   10.6491   10.1268    7.2749 H   0  0  0  0  0  0  0  0  0  0  0  0
    8.7646   11.5608    7.8886 H   0  0  0  0  0  0  0  0  0  0  0  0
    8.2571    9.3364   11.4983 H   0  0  0  0  0  0  0  0  0  0  0  0
   10.1384    7.9071   10.8863 H   0  0  0  0  0  0  0  0  0  0  0  0
    7.0778   11.2948   10.0211 C   0  0  0  0  0  0  0  0  0  0  0  0
    5.8274   10.7189    9.5206 N   0  0  0  0  0  0  0  0  0  0  0  0
    7.1471   12.3021    9.6030 H   0  0  0  0  0  0  0  0  0  0  0  0
    6.9559   11.3896   11.1020 H   0  0  0  0  0  0  0  0  0  0  0  0
    5.6829   10.6100    8.0991 C   0  0  0  0  0  0  0  0  0  0  0  0
    5.4817    9.3989   10.0180 C   0  0  0  0  0  0  0  0  0  0  0  0
    6.0896    8.4408    8.9901 C   0  0  0  0  0  0  0  0  0  0  0  0
    4.3928    9.2999   10.0206 H   0  0  0  0  0  0  0  0  0  0  0  0
    5.8590    9.2417   11.0245 H   0  0  0  0  0  0  0  0  0  0  0  0
    5.8331    9.1526    7.7184 N   0  0  0  0  0  0  0  0  0  0  0  0
    5.6211    7.4603    8.9594 H   0  0  0  0  0  0  0  0  0  0  0  0
    7.1635    8.3382    9.1402 H   0  0  0  0  0  0  0  0  0  0  0  0
    6.4215   11.2200    7.5789 H   0  0  0  0  0  0  0  0  0  0  0  0
    4.6756   10.9226    7.8057 H   0  0  0  0  0  0  0  0  0  0  0  0
    6.7844    8.8577    6.6284 C   0  0  0  0  0  0  0  0  0  0  0  0
    6.4196    9.5737    5.3297 C   0  0  0  0  0  0  0  0  0  0  0  0
    6.7633    7.7776    6.4628 H   0  0  0  0  0  0  0  0  0  0  0  0
    7.7865    9.1460    6.9602 H   0  0  0  0  0  0  0  0  0  0  0  0
    5.0653    9.1606    4.7495 C   0  0  0  0  0  0  0  0  0  0  0  0
    7.1976    9.3314    4.6040 H   0  0  0  0  0  0  0  0  0  0  0  0
    6.4351   10.6578    5.4726 H   0  0  0  0  0  0  0  0  0  0  0  0
    4.6966   10.0291    3.5509 C   0  0  0  0  0  0  0  0  0  0  0  0
    4.2749    9.2538    5.4930 H   0  0  0  0  0  0  0  0  0  0  0  0
    5.1002    8.1117    4.4539 H   0  0  0  0  0  0  0  0  0  0  0  0
    5.4736    9.9992    2.7911 H   0  0  0  0  0  0  0  0  0  0  0  0
    4.5589   11.0664    3.8535 H   0  0  0  0  0  0  0  0  0  0  0  0
    3.7713    9.6717    3.1100 H   0  0  0  0  0  0  0  0  0  0  0  0
    4.9100    8.7593    7.4010 H   0  0  0  0  0  0  0  0  0  0  0  0
    6.5341    7.0021    2.4531 C   0  0  0  0  0  0  0  0  0  0  0  0
    7.7092    6.4370    2.7012 C   0  0  0  0  0  0  0  0  0  0  0  0
    6.4723    8.0487    2.2055 H   0  0  0  0  0  0  0  0  0  0  0  0
    5.6018    6.4675    2.5011 H   0  0  0  0  0  0  0  0  0  0  0  0
    7.9414    5.0312    2.9945 C   0  0  0  0  0  0  0  0  0  0  0  0
    8.6101    7.0424    2.6722 H   0  0  0  0  0  0  0  0  0  0  0  0
    9.2308    4.6154    3.3264 C   0  0  0  0  0  0  0  0  0  0  0  0
    9.5194    3.2836    3.5389 C   0  0  0  0  0  0  0  0  0  0  0  0
    8.5253    2.3186    3.4190 C   0  0  0  0  0  0  0  0  0  0  0  0
    6.9404    4.0654    2.8962 C   0  0  0  0  0  0  0  0  0  0  0  0
    7.2353    2.7324    3.1002 C   0  0  0  0  0  0  0  0  0  0  0  0
    5.9304    4.3531    2.6564 H   0  0  0  0  0  0  0  0  0  0  0  0
    6.4519    1.9991    2.9739 H   0  0  0  0  0  0  0  0  0  0  0  0
   10.5346    2.9879    3.7704 H   0  0  0  0  0  0  0  0  0  0  0  0
   10.0206    5.3490    3.4102 H   0  0  0  0  0  0  0  0  0  0  0  0
    8.8445    0.8552    3.5960 C   0  0  0  0  0  0  0  0  0  0  0  0
    8.8008    0.3270    4.9612 N   0  0  0  0  0  0  0  0  0  0  0  0
    9.8493    0.6415    3.2230 H   0  0  0  0  0  0  0  0  0  0  0  0
    8.1398    0.2534    3.0166 H   0  0  0  0  0  0  0  0  0  0  0  0
    7.5330    0.4396    5.6349 C   0  0  0  0  0  0  0  0  0  0  0  0
    9.7937    0.8289    5.8878 C   0  0  0  0  0  0  0  0  0  0  0  0
    9.0614    1.9039    6.6950 C   0  0  0  0  0  0  0  0  0  0  0  0
   10.6655    1.2135    5.3655 H   0  0  0  0  0  0  0  0  0  0  0  0
   10.1121    0.0065    6.5396 H   0  0  0  0  0  0  0  0  0  0  0  0
    7.7050    1.3316    6.8380 N   0  0  0  0  0  0  0  0  0  0  0  0
    8.9903    2.8369    6.1322 H   0  0  0  0  0  0  0  0  0  0  0  0
    9.5032    2.1067    7.6663 H   0  0  0  0  0  0  0  0  0  0  0  0
    7.2165   -0.5464    5.9935 H   0  0  0  0  0  0  0  0  0  0  0  0
    6.7689    0.8428    4.9708 H   0  0  0  0  0  0  0  0  0  0  0  0
    7.4807    0.6062    8.1084 C   0  0  0  0  0  0  0  0  0  0  0  0
    7.3323    1.5470    9.2985 C   0  0  0  0  0  0  0  0  0  0  0  0
    8.3004   -0.1025    8.2590 H   0  0  0  0  0  0  0  0  0  0  0  0
    6.5461    0.0540    8.0023 H   0  0  0  0  0  0  0  0  0  0  0  0
    6.8204    0.8085   10.5350 C   0  0  0  0  0  0  0  0  0  0  0  0
    6.6173    2.3252    9.0286 H   0  0  0  0  0  0  0  0  0  0  0  0
    8.2815    2.0262    9.5391 H   0  0  0  0  0  0  0  0  0  0  0  0
    6.6204    1.7746   11.6956 C   0  0  0  0  0  0  0  0  0  0  0  0
    7.5280    0.0273   10.8224 H   0  0  0  0  0  0  0  0  0  0  0  0
    5.8691    0.3301   10.2996 H   0  0  0  0  0  0  0  0  0  0  0  0
    7.5632    2.2385   11.9754 H   0  0  0  0  0  0  0  0  0  0  0  0
    6.2225    1.2535   12.5629 H   0  0  0  0  0  0  0  0  0  0  0  0
    5.9249    2.5592   11.4109 H   0  0  0  0  0  0  0  0  0  0  0  0
    7.0124    2.1276    6.8419 H   0  0  0  0  0  0  0  0  0  0  0  0
  1  3  1  0  0  0  0
  1  4  1  0  0  0  0
  1  5  1  0  0  0  0
  2  6  1  0  0  0  0
  2  7  1  0  0  0  0
  2  8  1  0  0  0  0
  1  9  1  0  0  0  0
  2 10  1  0  0  0  0
  9 11  1  0  0  0  0
 10 11  1  0  0  0  0
  9 12  2  0  0  0  0
  9 13  2  0  0  0  0
 10 14  1  0  0  0  0
 10 15  2  0  0  0  0
 16 18  1  0  0  0  0
 16 19  1  0  0  0  0
 16 20  1  0  0  0  0
 17 21  1  0  0  0  0
 17 22  1  0  0  0  0
 17 23  1  0  0  0  0
 16 24  1  0  0  0  0
 17 25  1  0  0  0  0
 24 26  1  0  0  0  0
 25 26  1  0  0  0  0
 24 27  2  0  0  0  0
 24 28  2  0  0  0  0
 25 29  2  0  0  0  0
 25 30  2  0  0  0  0
 31 32  2  0  0  0  0
 31 33  1  0  0  0  0
 31 34  1  0  0  0  0
 32 35  1  0  0  0  0
 32 36  1  0  0  0  0
 35 37  4  0  0  0  0
 37 38  4  0  0  0  0
 38 39  4  0  0  0  0
 35 40  4  0  0  0  0
 39 41  4  0  0  0  0
 40 41  4  0  0  0  0
 40 42  1  0  0  0  0
 41 43  1  0  0  0  0
 38 44  1  0  0  0  0
 37 45  1  0  0  0  0
 39 46  1  0  0  0  0
 46 47  1  0  0  0  0
 46 48  1  0  0  0  0
 46 49  1  0  0  0  0
 47 50  1  0  0  0  0
 47 51  1  0  0  0  0
 51 52  1  0  0  0  0
 51 53  1  0  0  0  0
 51 54  1  0  0  0  0
 50 55  1  0  0  0  0
 52 55  1  0  0  0  0
 52 56  1  0  0  0  0
 52 57  1  0  0  0  0
 50 58  1  0  0  0  0
 50 59  1  0  0  0  0
 55 60  1  0  0  0  0
 60 61  1  0  0  0  0
 60 62  1  0  0  0  0
 60 63  1  0  0  0  0
 61 64  1  0  0  0  0
 61 65  1  0  0  0  0
 61 66  1  0  0  0  0
 64 67  1  0  0  0  0
 64 68  1  0  0  0  0
 64 69  1  0  0  0  0
 67 70  1  0  0  0  0
 67 71  1  0  0  0  0
 67 72  1  0  0  0  0
 55 73  1  0  0  0  0
 74 75  2  0  0  0  0
 74 76  1  0  0  0  0
 74 77  1  0  0  0  0
 75 78  1  0  0  0  0
 75 79  1  0  0  0  0
 78 80  4  0  0  0  0
 80 81  4  0  0  0  0
 81 82  4  0  0  0  0
 78 83  4  0  0  0  0
 82 84  4  0  0  0  0
 83 84  4  0  0  0  0
 83 85  1  0  0  0  0
 84 86  1  0  0  0  0
 81 87  1  0  0  0  0
 80 88  1  0  0  0  0
 82 89  1  0  0  0  0
 89 90  1  0  0  0  0
 89 91  1  0  0  0  0
 89 92  1  0  0  0  0
 90 93  1  0  0  0  0
 90 94  1  0  0  0  0
 94 95  1  0  0  0  0
 94 96  1  0  0  0  0
 94 97  1  0  0  0  0
 93 98  1  0  0  0  0
 95 98  1  0  0  0  0
 95 99  1  0  0  0  0
 95100  1  0  0  0  0
 93101  1  0  0  0  0
 93102  1  0  0  0  0
 98103  1  0  0  0  0
103104  1  0  0  0  0
103105  1  0  0  0  0
103106  1  0  0  0  0
104107  1  0  0  0  0
104108  1  0  0  0  0
104109  1  0  0  0  0
107110  1  0  0  0  0
107111  1  0  0  0  0
107112  1  0  0  0  0
110113  1  0  0  0  0
110114  1  0  0  0  0
110115  1  0  0  0  0
 98116  1  0  0  0  0
M  END
