 xtb: 6.7.1 (edcfbbe)
          10212513353D

116116  0     0  0            999 V2000
    4.3270    3.6793    7.6114 C   0  0  0  0  0  0  0  0  0  0  0  0
    2.8627    2.9325    2.9423 C   0  0  0  0  0  0  0  0  0  0  0  0
    4.8737    4.8723    7.8835 F   0  0  0  0  0  0  0  0  0  0  0  0
    3.0098    3.8326    7.5862 F   0  0  0  0  0  0  0  0  0  0  0  0
    4.6348    2.8690    8.6233 F   0  0  0  0  0  0  0  0  0  0  0  0
    2.9188    2.7834    1.6122 F   0  0  0  0  0  0  0  0  0  0  0  0
    2.6710    1.7378    3.4775 F   0  0  0  0  0  0  0  0  0  0  0  0
    1.8069    3.6961    3.2176 F   0  0  0  0  0  0  0  0  0  0  0  0
    4.9929    3.0378    5.9745 S   0  0  0  0  0  0  0  0  0  0  0  0
    4.4468    3.7594    3.5180 S   0  0  0  0  0  0  0  0  0  0  0  0
    4.2678    4.1004    5.0293 N   0  0  0  0  0  0  0  0  0  0  0  0
    6.4078    3.2663    6.0609 O   0  0  0  0  0  0  0  0  0  0  0  0
    4.5239    1.7038    5.8380 O   0  0  0  0  0  0  0  0  0  0  0  0
    4.5120    4.9399    2.6885 O   0  0  0  0  0  0  0  0  0  0  0  0
    5.5013    2.8193    3.2420 O   0  0  0  0  0  0  0  0  0  0  0  0
    5.6755   11.3165   12.7021 C   0  0  0  0  0  0  0  0  0  0  0  0
    3.7340    7.0575   11.7150 C   0  0  0  0  0  0  0  0  0  0  0  0
    6.1744   12.4931   12.3011 F   0  0  0  0  0  0  0  0  0  0  0  0
    4.8515   11.5584   13.7004 F   0  0  0  0  0  0  0  0  0  0  0  0
    6.7167   10.5989   13.1418 F   0  0  0  0  0  0  0  0  0  0  0  0
    2.7652    7.7292   11.1094 F   0  0  0  0  0  0  0  0  0  0  0  0
    4.3524    6.3208   10.7756 F   0  0  0  0  0  0  0  0  0  0  0  0
    3.1897    6.2253   12.5932 F   0  0  0  0  0  0  0  0  0  0  0  0
    4.9180   10.4452   11.2047 S   0  0  0  0  0  0  0  0  0  0  0  0
    5.0752    8.1225   12.4983 S   0  0  0  0  0  0  0  0  0  0  0  0
    5.5790    8.9924   11.2626 N   0  0  0  0  0  0  0  0  0  0  0  0
    3.5053   10.4511   11.3229 O   0  0  0  0  0  0  0  0  0  0  0  0
    5.5032   11.1344   10.0879 O   0  0  0  0  0  0  0  0  0  0  0  0
    6.0733    7.1520   12.8245 O   0  0  0  0  0  0  0  0  0  0  0  0
    4.5089    8.9253   13.5226 O   0  0  0  0  0  0  0  0  0  0  0  0
    2.0712    9.5700    2.1177 C   0  0  0  0  0  0  0  0  0  0  0  0
    2.0665   10.1649    3.3041 C   0  0  0  0  0  0  0  0  0  0  0  0
    1.5932   10.0195    1.2641 H   0  0  0  0  0  0  0  0  0  0  0  0
    2.5483    8.6199    1.9475 H   0  0  0  0  0  0  0  0  0  0  0  0
    2.6868    9.6526    4.5212 C   0  0  0  0  0  0  0  0  0  0  0  0
    1.5899   11.1317    3.4108 H   0  0  0  0  0  0  0  0  0  0  0  0
    3.0674    8.3163    4.6684 C   0  0  0  0  0  0  0  0  0  0  0  0
    3.6768    7.8784    5.8276 C   0  0  0  0  0  0  0  0  0  0  0  0
    3.9364    8.7647    6.8693 C   0  0  0  0  0  0  0  0  0  0  0  0
    2.9118   10.5234    5.5894 C   0  0  0  0  0  0  0  0  0  0  0  0
    3.5374   10.0895    6.7436 C   0  0  0  0  0  0  0  0  0  0  0  0
    2.6038   11.5558    5.5044 H   0  0  0  0  0  0  0  0  0  0  0  0
    3.7094   10.7757    7.5614 H   0  0  0  0  0  0  0  0  0  0  0  0
    3.9491    6.8377    5.9221 H   0  0  0  0  0  0  0  0  0  0  0  0
    2.8720    7.6041    3.8814 H   0  0  0  0  0  0  0  0  0  0  0  0
    4.6857    8.2947    8.0851 C   0  0  0  0  0  0  0  0  0  0  0  0
    6.0808    8.0702    7.7006 N   0  0  0  0  0  0  0  0  0  0  0  0
    4.2855    7.3332    8.4051 H   0  0  0  0  0  0  0  0  0  0  0  0
    4.5896    9.0198    8.9052 H   0  0  0  0  0  0  0  0  0  0  0  0
    6.8753    7.3149    8.5954 C   0  0  0  0  0  0  0  0  0  0  0  0
    6.8487    9.2712    7.4435 C   0  0  0  0  0  0  0  0  0  0  0  0
    7.6495    9.5502    8.7351 C   0  0  0  0  0  0  0  0  0  0  0  0
    6.1893   10.0981    7.1924 H   0  0  0  0  0  0  0  0  0  0  0  0
    7.5240    9.0904    6.6006 H   0  0  0  0  0  0  0  0  0  0  0  0
    7.5148    8.3116    9.5448 N   0  0  0  0  0  0  0  0  0  0  0  0
    7.2151   10.3896    9.2769 H   0  0  0  0  0  0  0  0  0  0  0  0
    8.7004    9.7427    8.5199 H   0  0  0  0  0  0  0  0  0  0  0  0
    7.6929    6.8325    8.0467 H   0  0  0  0  0  0  0  0  0  0  0  0
    6.2941    6.5754    9.1392 H   0  0  0  0  0  0  0  0  0  0  0  0
    8.7875    7.8861   10.1560 C   0  0  0  0  0  0  0  0  0  0  0  0
    8.6780    6.7007   11.1126 C   0  0  0  0  0  0  0  0  0  0  0  0
    9.1683    8.7467   10.7103 H   0  0  0  0  0  0  0  0  0  0  0  0
    9.4870    7.6531    9.3444 H   0  0  0  0  0  0  0  0  0  0  0  0
    8.7131    5.3209   10.4529 C   0  0  0  0  0  0  0  0  0  0  0  0
    7.7778    6.7992   11.7200 H   0  0  0  0  0  0  0  0  0  0  0  0
    9.5296    6.7608   11.7934 H   0  0  0  0  0  0  0  0  0  0  0  0
    8.8023    4.2326   11.5165 C   0  0  0  0  0  0  0  0  0  0  0  0
    9.5793    5.2505    9.7883 H   0  0  0  0  0  0  0  0  0  0  0  0
    7.8173    5.1465    9.8593 H   0  0  0  0  0  0  0  0  0  0  0  0
    9.7204    4.3290   12.0917 H   0  0  0  0  0  0  0  0  0  0  0  0
    8.7841    3.2484   11.0563 H   0  0  0  0  0  0  0  0  0  0  0  0
    7.9602    4.3140   12.1977 H   0  0  0  0  0  0  0  0  0  0  0  0
    6.7996    8.5129   10.3059 H   0  0  0  0  0  0  0  0  0  0  0  0
    6.3852   10.7965    4.2140 C   0  0  0  0  0  0  0  0  0  0  0  0
    7.1640   10.5416    3.1691 C   0  0  0  0  0  0  0  0  0  0  0  0
    6.5403   11.6715    4.8212 H   0  0  0  0  0  0  0  0  0  0  0  0
    5.5611   10.1667    4.5000 H   0  0  0  0  0  0  0  0  0  0  0  0
    7.0503    9.4009    2.2686 C   0  0  0  0  0  0  0  0  0  0  0  0
    7.9703   11.2252    2.9307 H   0  0  0  0  0  0  0  0  0  0  0  0
    7.9476    9.2761    1.2052 C   0  0  0  0  0  0  0  0  0  0  0  0
    7.8739    8.2117    0.3262 C   0  0  0  0  0  0  0  0  0  0  0  0
    6.9084    7.2225    0.4895 C   0  0  0  0  0  0  0  0  0  0  0  0
    6.0685    8.4196    2.4130 C   0  0  0  0  0  0  0  0  0  0  0  0
    6.0042    7.3475    1.5434 C   0  0  0  0  0  0  0  0  0  0  0  0
    5.3389    8.4920    3.2025 H   0  0  0  0  0  0  0  0  0  0  0  0
    5.2300    6.6079    1.6812 H   0  0  0  0  0  0  0  0  0  0  0  0
    8.5639    8.1620   -0.5051 H   0  0  0  0  0  0  0  0  0  0  0  0
    8.7048   10.0335    1.0584 H   0  0  0  0  0  0  0  0  0  0  0  0
    6.8340    6.0321   -0.4367 C   0  0  0  0  0  0  0  0  0  0  0  0
    7.6306    4.8701   -0.0374 N   0  0  0  0  0  0  0  0  0  0  0  0
    7.1763    6.3110   -1.4364 H   0  0  0  0  0  0  0  0  0  0  0  0
    5.8012    5.6888   -0.5110 H   0  0  0  0  0  0  0  0  0  0  0  0
    7.2546    4.2293    1.1700 C   0  0  0  0  0  0  0  0  0  0  0  0
    9.0489    5.1050    0.1224 C   0  0  0  0  0  0  0  0  0  0  0  0
    9.2457    5.4471    1.6202 C   0  0  0  0  0  0  0  0  0  0  0  0
    9.3949    5.8978   -0.5362 H   0  0  0  0  0  0  0  0  0  0  0  0
    9.5836    4.1850   -0.1282 H   0  0  0  0  0  0  0  0  0  0  0  0
    7.9992    4.9786    2.2723 N   0  0  0  0  0  0  0  0  0  0  0  0
    9.3760    6.5180    1.7715 H   0  0  0  0  0  0  0  0  0  0  0  0
   10.0998    4.9176    2.0390 H   0  0  0  0  0  0  0  0  0  0  0  0
    7.6158    3.1971    1.1885 H   0  0  0  0  0  0  0  0  0  0  0  0
    6.1838    4.2391    1.3699 H   0  0  0  0  0  0  0  0  0  0  0  0
    8.2099    4.2130    3.5153 C   0  0  0  0  0  0  0  0  0  0  0  0
    8.8366    5.0612    4.6183 C   0  0  0  0  0  0  0  0  0  0  0  0
    8.8512    3.3596    3.2850 H   0  0  0  0  0  0  0  0  0  0  0  0
    7.2476    3.8213    3.8509 H   0  0  0  0  0  0  0  0  0  0  0  0
    8.1853    6.4346    4.7979 C   0  0  0  0  0  0  0  0  0  0  0  0
    9.9080    5.1926    4.4429 H   0  0  0  0  0  0  0  0  0  0  0  0
    8.7058    4.4933    5.5396 H   0  0  0  0  0  0  0  0  0  0  0  0
    6.6898    6.3446    5.0723 C   0  0  0  0  0  0  0  0  0  0  0  0
    8.3762    7.0783    3.9321 H   0  0  0  0  0  0  0  0  0  0  0  0
    8.6716    6.9173    5.6484 H   0  0  0  0  0  0  0  0  0  0  0  0
    6.2977    7.3180    5.3459 H   0  0  0  0  0  0  0  0  0  0  0  0
    6.5052    5.6589    5.8926 H   0  0  0  0  0  0  0  0  0  0  0  0
    6.1235    5.9790    4.2200 H   0  0  0  0  0  0  0  0  0  0  0  0
    7.4006    5.7849    2.5009 H   0  0  0  0  0  0  0  0  0  0  0  0
  1  3  1  0  0  0  0
  1  4  1  0  0  0  0
  1  5  1  0  0  0  0
  2  6  1  0  0  0  0
  2  7  1  0  0  0  0
  2  8  1  0  0  0  0
  1  9  1  0  0  0  0
  2 10  1  0  0  0  0
  9 11  1  0  0  0  0
 10 11  1  0  0  0  0
  9 12  2  0  0  0  0
  9 13  2  0  0  0  0
 10 14  2  0  0  0  0
 10 15  2  0  0  0  0
 16 18  1  0  0  0  0
 16 19  1  0  0  0  0
 16 20  1  0  0  0  0
 17 21  1  0  0  0  0
 17 22  1  0  0  0  0
 17 23  1  0  0  0  0
 16 24  1  0  0  0  0
 17 25  1  0  0  0  0
 24 26  1  0  0  0  0
 25 26  1  0  0  0  0
 24 27  2  0  0  0  0
 24 28  2  0  0  0  0
 25 29  2  0  0  0  0
 25 30  2  0  0  0  0
 31 32  2  0  0  0  0
 31 33  1  0  0  0  0
 31 34  1  0  0  0  0
 32 35  1  0  0  0  0
 32 36  1  0  0  0  0
 35 37  4  0  0  0  0
 37 38  4  0  0  0  0
 38 39  4  0  0  0  0
 35 40  4  0  0  0  0
 39 41  4  0  0  0  0
 40 41  4  0  0  0  0
 40 42  1  0  0  0  0
 41 43  1  0  0  0  0
 38 44  1  0  0  0  0
 37 45  1  0  0  0  0
 39 46  1  0  0  0  0
 46 47  1  0  0  0  0
 46 48  1  0  0  0  0
 46 49  1  0  0  0  0
 47 50  1  0  0  0  0
 47 51  1  0  0  0  0
 51 52  1  0  0  0  0
 51 53  1  0  0  0  0
 51 54  1  0  0  0  0
 50 55  1  0  0  0  0
 52 55  1  0  0  0  0
 52 56  1  0  0  0  0
 52 57  1  0  0  0  0
 50 58  1  0  0  0  0
 50 59  1  0  0  0  0
 55 60  1  0  0  0  0
 60 61  1  0  0  0  0
 60 62  1  0  0  0  0
 60 63  1  0  0  0  0
 61 64  1  0  0  0  0
 61 65  1  0  0  0  0
 61 66  1  0  0  0  0
 64 67  1  0  0  0  0
 64 68  1  0  0  0  0
 64 69  1  0  0  0  0
 67 70  1  0  0  0  0
 67 71  1  0  0  0  0
 67 72  1  0  0  0  0
 55 73  1  0  0  0  0
 74 75  2  0  0  0  0
 74 76  1  0  0  0  0
 74 77  1  0  0  0  0
 75 78  1  0  0  0  0
 75 79  1  0  0  0  0
 78 80  4  0  0  0  0
 80 81  4  0  0  0  0
 81 82  4  0  0  0  0
 78 83  4  0  0  0  0
 82 84  4  0  0  0  0
 83 84  4  0  0  0  0
 83 85  1  0  0  0  0
 84 86  1  0  0  0  0
 81 87  1  0  0  0  0
 80 88  1  0  0  0  0
 82 89  1  0  0  0  0
 89 90  1  0  0  0  0
 89 91  1  0  0  0  0
 89 92  1  0  0  0  0
 90 93  1  0  0  0  0
 90 94  1  0  0  0  0
 94 95  1  0  0  0  0
 94 96  1  0  0  0  0
 94 97  1  0  0  0  0
 93 98  1  0  0  0  0
 95 98  1  0  0  0  0
 95 99  1  0  0  0  0
 95100  1  0  0  0  0
 93101  1  0  0  0  0
 93102  1  0  0  0  0
 98103  1  0  0  0  0
103104  1  0  0  0  0
103105  1  0  0  0  0
103106  1  0  0  0  0
104107  1  0  0  0  0
104108  1  0  0  0  0
104109  1  0  0  0  0
107110  1  0  0  0  0
107111  1  0  0  0  0
107112  1  0  0  0  0
110113  1  0  0  0  0
110114  1  0  0  0  0
110115  1  0  0  0  0
 98116  1  0  0  0  0
M  END
