 xtb: 6.7.1 (edcfbbe)
          10212513413D

116116  0     0  0            999 V2000
    1.7357    4.0517   10.6789 C   0  0  0  0  0  0  0  0  0  0  0  0
    3.2771    0.1753    8.6852 C   0  0  0  0  0  0  0  0  0  0  0  0
    2.0406    2.9412   11.3522 F   0  0  0  0  0  0  0  0  0  0  0  0
    2.8291    4.8315   10.6858 F   0  0  0  0  0  0  0  0  0  0  0  0
    0.8078    4.7002   11.3823 F   0  0  0  0  0  0  0  0  0  0  0  0
    4.5687   -0.1298    8.4659 F   0  0  0  0  0  0  0  0  0  0  0  0
    2.9798   -0.2004    9.9211 F   0  0  0  0  0  0  0  0  0  0  0  0
    2.5553   -0.5523    7.8347 F   0  0  0  0  0  0  0  0  0  0  0  0
    1.1301    3.6839    8.9112 S   0  0  0  0  0  0  0  0  0  0  0  0
    3.0413    2.0135    8.3785 S   0  0  0  0  0  0  0  0  0  0  0  0
    1.5168    2.1667    8.7062 N   0  0  0  0  0  0  0  0  0  0  0  0
   -0.2717    3.9037    8.9540 O   0  0  0  0  0  0  0  0  0  0  0  0
    1.9317    4.5493    8.0914 O   0  0  0  0  0  0  0  0  0  0  0  0
    3.4010    2.1271    6.9876 O   0  0  0  0  0  0  0  0  0  0  0  0
    3.9332    2.6544    9.3038 O   0  0  0  0  0  0  0  0  0  0  0  0
    7.0948    9.0189    2.4661 C   0  0  0  0  0  0  0  0  0  0  0  0
    2.2985    9.2964    2.2455 C   0  0  0  0  0  0  0  0  0  0  0  0
    6.9909    7.7092    2.7663 F   0  0  0  0  0  0  0  0  0  0  0  0
    6.7147    9.1588    1.2006 F   0  0  0  0  0  0  0  0  0  0  0  0
    8.4016    9.3108    2.5266 F   0  0  0  0  0  0  0  0  0  0  0  0
    1.8762    8.6267    3.3239 F   0  0  0  0  0  0  0  0  0  0  0  0
    1.2402    9.9425    1.7485 F   0  0  0  0  0  0  0  0  0  0  0  0
    2.6523    8.3769    1.3369 F   0  0  0  0  0  0  0  0  0  0  0  0
    6.0626   10.0122    3.7106 S   0  0  0  0  0  0  0  0  0  0  0  0
    3.7273   10.4802    2.6300 S   0  0  0  0  0  0  0  0  0  0  0  0
    4.6258    9.4384    3.4393 N   0  0  0  0  0  0  0  0  0  0  0  0
    6.6178    9.5325    4.9478 O   0  0  0  0  0  0  0  0  0  0  0  0
    6.2486   11.3855    3.3881 O   0  0  0  0  0  0  0  0  0  0  0  0
    3.1288   11.4856    3.4429 O   0  0  0  0  0  0  0  0  0  0  0  0
    4.2343   10.8205    1.3430 O   0  0  0  0  0  0  0  0  0  0  0  0
    2.8659    7.4090    6.2888 C   0  0  0  0  0  0  0  0  0  0  0  0
    4.1666    7.4594    6.0116 C   0  0  0  0  0  0  0  0  0  0  0  0
    2.2018    8.1585    5.8969 H   0  0  0  0  0  0  0  0  0  0  0  0
    2.4175    6.6373    6.8973 H   0  0  0  0  0  0  0  0  0  0  0  0
    5.1591    6.5086    6.4995 C   0  0  0  0  0  0  0  0  0  0  0  0
    4.5603    8.2648    5.4059 H   0  0  0  0  0  0  0  0  0  0  0  0
    4.8074    5.3055    7.1184 C   0  0  0  0  0  0  0  0  0  0  0  0
    5.7795    4.4655    7.6305 C   0  0  0  0  0  0  0  0  0  0  0  0
    7.1239    4.8152    7.5822 C   0  0  0  0  0  0  0  0  0  0  0  0
    6.5198    6.8100    6.3671 C   0  0  0  0  0  0  0  0  0  0  0  0
    7.4836    5.9855    6.9179 C   0  0  0  0  0  0  0  0  0  0  0  0
    6.7997    7.7198    5.8594 H   0  0  0  0  0  0  0  0  0  0  0  0
    8.5279    6.2530    6.8295 H   0  0  0  0  0  0  0  0  0  0  0  0
    5.4770    3.5370    8.0871 H   0  0  0  0  0  0  0  0  0  0  0  0
    3.7745    5.0202    7.2342 H   0  0  0  0  0  0  0  0  0  0  0  0
    8.1288    3.9981    8.3449 C   0  0  0  0  0  0  0  0  0  0  0  0
    8.1192    4.2506    9.7911 N   0  0  0  0  0  0  0  0  0  0  0  0
    9.1438    4.2172    8.0006 H   0  0  0  0  0  0  0  0  0  0  0  0
    7.9455    2.9309    8.2161 H   0  0  0  0  0  0  0  0  0  0  0  0
    8.1954    5.5946   10.2154 C   0  0  0  0  0  0  0  0  0  0  0  0
    7.0835    3.6478   10.6031 C   0  0  0  0  0  0  0  0  0  0  0  0
    6.0246    4.7466   10.8117 C   0  0  0  0  0  0  0  0  0  0  0  0
    7.5240    3.3496   11.5609 H   0  0  0  0  0  0  0  0  0  0  0  0
    6.6475    2.7730   10.1275 H   0  0  0  0  0  0  0  0  0  0  0  0
    6.7875    6.0217   10.7031 N   0  0  0  0  0  0  0  0  0  0  0  0
    5.5314    4.6623   11.7762 H   0  0  0  0  0  0  0  0  0  0  0  0
    5.2704    4.6932   10.0278 H   0  0  0  0  0  0  0  0  0  0  0  0
    8.5367    6.2594    9.4218 H   0  0  0  0  0  0  0  0  0  0  0  0
    8.8523    5.6829   11.0890 H   0  0  0  0  0  0  0  0  0  0  0  0
    6.1303    7.0631    9.8749 C   0  0  0  0  0  0  0  0  0  0  0  0
    4.9251    7.6720   10.5819 C   0  0  0  0  0  0  0  0  0  0  0  0
    5.8119    6.6142    8.9365 H   0  0  0  0  0  0  0  0  0  0  0  0
    6.8655    7.8410    9.6632 H   0  0  0  0  0  0  0  0  0  0  0  0
    4.0796    8.5035    9.6106 C   0  0  0  0  0  0  0  0  0  0  0  0
    5.2585    8.3036   11.4102 H   0  0  0  0  0  0  0  0  0  0  0  0
    4.2930    6.8784   10.9807 H   0  0  0  0  0  0  0  0  0  0  0  0
    4.8540    9.6235    8.9251 C   0  0  0  0  0  0  0  0  0  0  0  0
    3.2511    8.9329   10.1751 H   0  0  0  0  0  0  0  0  0  0  0  0
    3.6563    7.8435    8.8538 H   0  0  0  0  0  0  0  0  0  0  0  0
    5.5706    9.2362    8.2063 H   0  0  0  0  0  0  0  0  0  0  0  0
    5.3759   10.2392    9.6552 H   0  0  0  0  0  0  0  0  0  0  0  0
    4.1657   10.2593    8.3770 H   0  0  0  0  0  0  0  0  0  0  0  0
    6.8920    6.4246   11.6364 H   0  0  0  0  0  0  0  0  0  0  0  0
    6.0023    6.7560   -0.7105 C   0  0  0  0  0  0  0  0  0  0  0  0
    6.9185    6.1149    0.0050 C   0  0  0  0  0  0  0  0  0  0  0  0
    6.2015    7.7266   -1.1278 H   0  0  0  0  0  0  0  0  0  0  0  0
    5.0132    6.3651   -0.8822 H   0  0  0  0  0  0  0  0  0  0  0  0
    6.7519    4.8204    0.6524 C   0  0  0  0  0  0  0  0  0  0  0  0
    7.8808    6.5805    0.1693 H   0  0  0  0  0  0  0  0  0  0  0  0
    7.6562    4.4302    1.6422 C   0  0  0  0  0  0  0  0  0  0  0  0
    7.5465    3.2044    2.2687 C   0  0  0  0  0  0  0  0  0  0  0  0
    6.5297    2.3185    1.9285 C   0  0  0  0  0  0  0  0  0  0  0  0
    5.7282    3.9324    0.3177 C   0  0  0  0  0  0  0  0  0  0  0  0
    5.6176    2.7077    0.9482 C   0  0  0  0  0  0  0  0  0  0  0  0
    5.0270    4.1923   -0.4593 H   0  0  0  0  0  0  0  0  0  0  0  0
    4.8395    2.0212    0.6385 H   0  0  0  0  0  0  0  0  0  0  0  0
    8.2757    2.9200    3.0143 H   0  0  0  0  0  0  0  0  0  0  0  0
    8.4537    5.1018    1.9199 H   0  0  0  0  0  0  0  0  0  0  0  0
    6.4159    0.9709    2.5980 C   0  0  0  0  0  0  0  0  0  0  0  0
    5.5708    0.9207    3.7914 N   0  0  0  0  0  0  0  0  0  0  0  0
    7.4044    0.6240    2.9054 H   0  0  0  0  0  0  0  0  0  0  0  0
    6.0096    0.2383    1.8962 H   0  0  0  0  0  0  0  0  0  0  0  0
    4.2067    1.2471    3.6111 C   0  0  0  0  0  0  0  0  0  0  0  0
    5.9676    1.7706    4.8980 C   0  0  0  0  0  0  0  0  0  0  0  0
    5.1714    3.0861    4.7304 C   0  0  0  0  0  0  0  0  0  0  0  0
    7.0432    1.9272    4.9084 H   0  0  0  0  0  0  0  0  0  0  0  0
    5.6636    1.2854    5.8285 H   0  0  0  0  0  0  0  0  0  0  0  0
    4.1124    2.7622    3.7451 N   0  0  0  0  0  0  0  0  0  0  0  0
    5.7930    3.9045    4.3714 H   0  0  0  0  0  0  0  0  0  0  0  0
    4.7017    3.3559    5.6727 H   0  0  0  0  0  0  0  0  0  0  0  0
    3.6191    0.8414    4.4412 H   0  0  0  0  0  0  0  0  0  0  0  0
    3.8081    0.9110    2.6547 H   0  0  0  0  0  0  0  0  0  0  0  0
    2.7555    3.2192    4.1145 C   0  0  0  0  0  0  0  0  0  0  0  0
    2.6062    4.7338    4.0385 C   0  0  0  0  0  0  0  0  0  0  0  0
    2.5598    2.8708    5.1319 H   0  0  0  0  0  0  0  0  0  0  0  0
    2.0536    2.7418    3.4255 H   0  0  0  0  0  0  0  0  0  0  0  0
    2.9119    5.3222    2.6520 C   0  0  0  0  0  0  0  0  0  0  0  0
    3.2466    5.2109    4.7770 H   0  0  0  0  0  0  0  0  0  0  0  0
    1.5799    4.9590    4.3259 H   0  0  0  0  0  0  0  0  0  0  0  0
    4.2464    6.0596    2.6085 C   0  0  0  0  0  0  0  0  0  0  0  0
    2.1344    6.0354    2.3866 H   0  0  0  0  0  0  0  0  0  0  0  0
    2.8880    4.5366    1.8892 H   0  0  0  0  0  0  0  0  0  0  0  0
    5.0841    5.4253    2.8921 H   0  0  0  0  0  0  0  0  0  0  0  0
    4.2298    6.9154    3.2773 H   0  0  0  0  0  0  0  0  0  0  0  0
    4.4358    6.4380    1.6091 H   0  0  0  0  0  0  0  0  0  0  0  0
    4.3680    3.1837    2.8397 H   0  0  0  0  0  0  0  0  0  0  0  0
  1  3  1  0  0  0  0
  1  4  1  0  0  0  0
  1  5  1  0  0  0  0
  2  6  1  0  0  0  0
  2  7  1  0  0  0  0
  2  8  1  0  0  0  0
  1  9  1  0  0  0  0
  2 10  1  0  0  0  0
  9 11  1  0  0  0  0
 10 11  1  0  0  0  0
  9 12  2  0  0  0  0
  9 13  2  0  0  0  0
 10 14  2  0  0  0  0
 10 15  2  0  0  0  0
 16 18  1  0  0  0  0
 16 19  1  0  0  0  0
 16 20  1  0  0  0  0
 17 21  1  0  0  0  0
 17 22  1  0  0  0  0
 17 23  1  0  0  0  0
 16 24  1  0  0  0  0
 17 25  1  0  0  0  0
 24 26  1  0  0  0  0
 25 26  1  0  0  0  0
 24 27  2  0  0  0  0
 24 28  2  0  0  0  0
 25 29  2  0  0  0  0
 25 30  2  0  0  0  0
 31 32  2  0  0  0  0
 31 33  1  0  0  0  0
 31 34  1  0  0  0  0
 32 35  1  0  0  0  0
 32 36  1  0  0  0  0
 35 37  4  0  0  0  0
 37 38  4  0  0  0  0
 38 39  4  0  0  0  0
 35 40  4  0  0  0  0
 39 41  4  0  0  0  0
 40 41  4  0  0  0  0
 40 42  1  0  0  0  0
 41 43  1  0  0  0  0
 38 44  1  0  0  0  0
 37 45  1  0  0  0  0
 39 46  1  0  0  0  0
 46 47  1  0  0  0  0
 46 48  1  0  0  0  0
 46 49  1  0  0  0  0
 47 50  1  0  0  0  0
 47 51  1  0  0  0  0
 51 52  1  0  0  0  0
 51 53  1  0  0  0  0
 51 54  1  0  0  0  0
 50 55  1  0  0  0  0
 52 55  1  0  0  0  0
 52 56  1  0  0  0  0
 52 57  1  0  0  0  0
 50 58  1  0  0  0  0
 50 59  1  0  0  0  0
 55 60  1  0  0  0  0
 60 61  1  0  0  0  0
 60 62  1  0  0  0  0
 60 63  1  0  0  0  0
 61 64  1  0  0  0  0
 61 65  1  0  0  0  0
 61 66  1  0  0  0  0
 64 67  1  0  0  0  0
 64 68  1  0  0  0  0
 64 69  1  0  0  0  0
 67 70  1  0  0  0  0
 67 71  1  0  0  0  0
 67 72  1  0  0  0  0
 55 73  1  0  0  0  0
 74 75  2  0  0  0  0
 74 76  1  0  0  0  0
 74 77  1  0  0  0  0
 75 78  1  0  0  0  0
 75 79  1  0  0  0  0
 78 80  4  0  0  0  0
 80 81  4  0  0  0  0
 81 82  4  0  0  0  0
 78 83  4  0  0  0  0
 82 84  4  0  0  0  0
 83 84  4  0  0  0  0
 83 85  1  0  0  0  0
 84 86  1  0  0  0  0
 81 87  1  0  0  0  0
 80 88  1  0  0  0  0
 82 89  1  0  0  0  0
 89 90  1  0  0  0  0
 89 91  1  0  0  0  0
 89 92  1  0  0  0  0
 90 93  1  0  0  0  0
 90 94  1  0  0  0  0
 94 95  1  0  0  0  0
 94 96  1  0  0  0  0
 94 97  1  0  0  0  0
 93 98  1  0  0  0  0
 95 98  1  0  0  0  0
 95 99  1  0  0  0  0
 95100  1  0  0  0  0
 93101  1  0  0  0  0
 93102  1  0  0  0  0
 98103  1  0  0  0  0
103104  1  0  0  0  0
103105  1  0  0  0  0
103106  1  0  0  0  0
104107  1  0  0  0  0
104108  1  0  0  0  0
104109  1  0  0  0  0
107110  1  0  0  0  0
107111  1  0  0  0  0
107112  1  0  0  0  0
110113  1  0  0  0  0
110114  1  0  0  0  0
110115  1  0  0  0  0
 98116  1  0  0  0  0
M  END
