 xtb: 6.7.1 (edcfbbe)
          10212513363D

116116  0     0  0            999 V2000
    8.2011    3.2954    4.3324 C   0  0  0  0  0  0  0  0  0  0  0  0
    3.8614    3.3459    3.2605 C   0  0  0  0  0  0  0  0  0  0  0  0
    8.5701    2.4781    5.3375 F   0  0  0  0  0  0  0  0  0  0  0  0
    7.8315    2.5311    3.3155 F   0  0  0  0  0  0  0  0  0  0  0  0
    9.3058    3.9363    3.9770 F   0  0  0  0  0  0  0  0  0  0  0  0
    3.4422    4.5941    3.2905 F   0  0  0  0  0  0  0  0  0  0  0  0
    4.7605    3.1500    2.3113 F   0  0  0  0  0  0  0  0  0  0  0  0
    2.7891    2.5989    2.9406 F   0  0  0  0  0  0  0  0  0  0  0  0
    6.6382    4.1351    4.9897 S   0  0  0  0  0  0  0  0  0  0  0  0
    4.4090    2.6853    4.9333 S   0  0  0  0  0  0  0  0  0  0  0  0
    5.9452    2.7055    5.2103 N   0  0  0  0  0  0  0  0  0  0  0  0
    6.9300    4.6940    6.2890 O   0  0  0  0  0  0  0  0  0  0  0  0
    5.8467    4.7931    4.0046 O   0  0  0  0  0  0  0  0  0  0  0  0
    3.9543    1.3184    4.9223 O   0  0  0  0  0  0  0  0  0  0  0  0
    3.6740    3.4746    5.9167 O   0  0  0  0  0  0  0  0  0  0  0  0
    6.8863    6.0415    1.9625 C   0  0  0  0  0  0  0  0  0  0  0  0
    5.7329   10.0428    4.0201 C   0  0  0  0  0  0  0  0  0  0  0  0
    5.6499    5.7094    1.6565 F   0  0  0  0  0  0  0  0  0  0  0  0
    7.3817    6.7782    0.9755 F   0  0  0  0  0  0  0  0  0  0  0  0
    7.6198    4.9134    1.9794 F   0  0  0  0  0  0  0  0  0  0  0  0
    4.7622   10.8405    4.4750 F   0  0  0  0  0  0  0  0  0  0  0  0
    6.6253    9.9251    5.0110 F   0  0  0  0  0  0  0  0  0  0  0  0
    6.3276   10.6777    3.0170 F   0  0  0  0  0  0  0  0  0  0  0  0
    7.2056    6.9101    3.6063 S   0  0  0  0  0  0  0  0  0  0  0  0
    5.0425    8.3424    3.4957 S   0  0  0  0  0  0  0  0  0  0  0  0
    5.9001    7.3301    4.3637 N   0  0  0  0  0  0  0  0  0  0  0  0
    7.9630    5.9430    4.4027 O   0  0  0  0  0  0  0  0  0  0  0  0
    8.0091    8.0517    3.2871 O   0  0  0  0  0  0  0  0  0  0  0  0
    5.3573    8.2308    2.1088 O   0  0  0  0  0  0  0  0  0  0  0  0
    3.6812    8.3866    3.9084 O   0  0  0  0  0  0  0  0  0  0  0  0
    3.3315    8.2653   10.9399 C   0  0  0  0  0  0  0  0  0  0  0  0
    4.2686    7.4147   11.3407 C   0  0  0  0  0  0  0  0  0  0  0  0
    3.0722    9.1250   11.5324 H   0  0  0  0  0  0  0  0  0  0  0  0
    2.7952    8.1558   10.0144 H   0  0  0  0  0  0  0  0  0  0  0  0
    4.7148    6.2194   10.6357 C   0  0  0  0  0  0  0  0  0  0  0  0
    4.7730    7.5912   12.2835 H   0  0  0  0  0  0  0  0  0  0  0  0
    5.7088    5.4238   11.2104 C   0  0  0  0  0  0  0  0  0  0  0  0
    6.1533    4.2751   10.5847 C   0  0  0  0  0  0  0  0  0  0  0  0
    5.6333    3.8849    9.3535 C   0  0  0  0  0  0  0  0  0  0  0  0
    4.2078    5.8310    9.3935 C   0  0  0  0  0  0  0  0  0  0  0  0
    4.6680    4.6920    8.7570 C   0  0  0  0  0  0  0  0  0  0  0  0
    3.4593    6.4365    8.9083 H   0  0  0  0  0  0  0  0  0  0  0  0
    4.3028    4.4488    7.7705 H   0  0  0  0  0  0  0  0  0  0  0  0
    6.9144    3.6694   11.0569 H   0  0  0  0  0  0  0  0  0  0  0  0
    6.1308    5.7083   12.1641 H   0  0  0  0  0  0  0  0  0  0  0  0
    6.0818    2.5994    8.7125 C   0  0  0  0  0  0  0  0  0  0  0  0
    5.1880    1.4538    8.9580 N   0  0  0  0  0  0  0  0  0  0  0  0
    7.0606    2.3195    9.1194 H   0  0  0  0  0  0  0  0  0  0  0  0
    6.1897    2.7452    7.6350 H   0  0  0  0  0  0  0  0  0  0  0  0
    4.4890    0.9159    7.8540 C   0  0  0  0  0  0  0  0  0  0  0  0
    4.1630    1.5918    9.9680 C   0  0  0  0  0  0  0  0  0  0  0  0
    2.8990    2.0568    9.2027 C   0  0  0  0  0  0  0  0  0  0  0  0
    4.4573    2.2884   10.7490 H   0  0  0  0  0  0  0  0  0  0  0  0
    3.9908    0.6092   10.4180 H   0  0  0  0  0  0  0  0  0  0  0  0
    3.1401    1.6378    7.8033 N   0  0  0  0  0  0  0  0  0  0  0  0
    2.7947    3.1391    9.2607 H   0  0  0  0  0  0  0  0  0  0  0  0
    1.9997    1.5804    9.5891 H   0  0  0  0  0  0  0  0  0  0  0  0
    4.2618   -0.1403    8.0390 H   0  0  0  0  0  0  0  0  0  0  0  0
    5.0120    1.0287    6.9052 H   0  0  0  0  0  0  0  0  0  0  0  0
    2.0758    0.8307    7.1719 C   0  0  0  0  0  0  0  0  0  0  0  0
    0.9345    1.6817    6.6216 C   0  0  0  0  0  0  0  0  0  0  0  0
    1.7150    0.0956    7.8971 H   0  0  0  0  0  0  0  0  0  0  0  0
    2.5395    0.3198    6.3258 H   0  0  0  0  0  0  0  0  0  0  0  0
    0.0465    2.3558    7.6671 C   0  0  0  0  0  0  0  0  0  0  0  0
    0.3127    1.0273    6.0083 H   0  0  0  0  0  0  0  0  0  0  0  0
    1.3610    2.4363    5.9594 H   0  0  0  0  0  0  0  0  0  0  0  0
   -1.1546    3.0214    7.0045 C   0  0  0  0  0  0  0  0  0  0  0  0
    0.6089    3.1177    8.2077 H   0  0  0  0  0  0  0  0  0  0  0  0
   -0.3076    1.6126    8.3869 H   0  0  0  0  0  0  0  0  0  0  0  0
   -1.7613    2.2863    6.4816 H   0  0  0  0  0  0  0  0  0  0  0  0
   -0.8223    3.7654    6.2858 H   0  0  0  0  0  0  0  0  0  0  0  0
   -1.7763    3.5137    7.7479 H   0  0  0  0  0  0  0  0  0  0  0  0
    3.2819    2.4653    7.1672 H   0  0  0  0  0  0  0  0  0  0  0  0
    0.4961   11.4527    7.8236 C   0  0  0  0  0  0  0  0  0  0  0  0
    1.6797   11.4167    8.4244 C   0  0  0  0  0  0  0  0  0  0  0  0
   -0.2475   12.1835    8.0925 H   0  0  0  0  0  0  0  0  0  0  0  0
    0.2259   10.7728    7.0346 H   0  0  0  0  0  0  0  0  0  0  0  0
    2.7668   10.4868    8.1453 C   0  0  0  0  0  0  0  0  0  0  0  0
    1.8981   12.1460    9.1962 H   0  0  0  0  0  0  0  0  0  0  0  0
    2.6224    9.3833    7.3007 C   0  0  0  0  0  0  0  0  0  0  0  0
    3.6791    8.5302    7.0653 C   0  0  0  0  0  0  0  0  0  0  0  0
    4.9182    8.7503    7.6613 C   0  0  0  0  0  0  0  0  0  0  0  0
    4.0114   10.6954    8.7396 C   0  0  0  0  0  0  0  0  0  0  0  0
    5.0734    9.8428    8.5001 C   0  0  0  0  0  0  0  0  0  0  0  0
    4.1497   11.5476    9.3905 H   0  0  0  0  0  0  0  0  0  0  0  0
    6.0344   10.0336    8.9522 H   0  0  0  0  0  0  0  0  0  0  0  0
    3.5630    7.7016    6.3833 H   0  0  0  0  0  0  0  0  0  0  0  0
    1.6794    9.1932    6.8143 H   0  0  0  0  0  0  0  0  0  0  0  0
    6.0252    7.7793    7.3579 C   0  0  0  0  0  0  0  0  0  0  0  0
    7.3448    8.2746    7.7411 N   0  0  0  0  0  0  0  0  0  0  0  0
    6.0030    7.5784    6.2857 H   0  0  0  0  0  0  0  0  0  0  0  0
    5.8130    6.8221    7.8487 H   0  0  0  0  0  0  0  0  0  0  0  0
    8.3732    7.9981    6.8086 C   0  0  0  0  0  0  0  0  0  0  0  0
    7.8503    7.6991    8.9684 C   0  0  0  0  0  0  0  0  0  0  0  0
    8.5500    6.3844    8.5357 C   0  0  0  0  0  0  0  0  0  0  0  0
    7.0479    7.5339    9.6838 H   0  0  0  0  0  0  0  0  0  0  0  0
    8.5778    8.3882    9.4077 H   0  0  0  0  0  0  0  0  0  0  0  0
    8.7747    6.5540    7.0806 N   0  0  0  0  0  0  0  0  0  0  0  0
    7.9155    5.5162    8.7058 H   0  0  0  0  0  0  0  0  0  0  0  0
    9.5008    6.2547    9.0502 H   0  0  0  0  0  0  0  0  0  0  0  0
    9.2500    8.6196    7.0239 H   0  0  0  0  0  0  0  0  0  0  0  0
    8.0734    8.1222    5.7706 H   0  0  0  0  0  0  0  0  0  0  0  0
   10.1177    6.2077    6.5923 C   0  0  0  0  0  0  0  0  0  0  0  0
   10.5054    4.7753    6.9477 C   0  0  0  0  0  0  0  0  0  0  0  0
   10.8372    6.9181    7.0123 H   0  0  0  0  0  0  0  0  0  0  0  0
   10.0917    6.3173    5.5062 H   0  0  0  0  0  0  0  0  0  0  0  0
   11.7368    4.3193    6.1645 C   0  0  0  0  0  0  0  0  0  0  0  0
    9.6672    4.1190    6.7174 H   0  0  0  0  0  0  0  0  0  0  0  0
   10.7182    4.6851    8.0153 H   0  0  0  0  0  0  0  0  0  0  0  0
   12.0858    2.8714    6.4862 C   0  0  0  0  0  0  0  0  0  0  0  0
   12.5839    4.9641    6.4088 H   0  0  0  0  0  0  0  0  0  0  0  0
   11.5361    4.4156    5.0985 H   0  0  0  0  0  0  0  0  0  0  0  0
   12.9558    2.5560    5.9170 H   0  0  0  0  0  0  0  0  0  0  0  0
   11.2536    2.2201    6.2342 H   0  0  0  0  0  0  0  0  0  0  0  0
   12.3078    2.7533    7.5447 H   0  0  0  0  0  0  0  0  0  0  0  0
    8.0934    5.9491    6.5649 H   0  0  0  0  0  0  0  0  0  0  0  0
  1  3  1  0  0  0  0
  1  4  1  0  0  0  0
  1  5  1  0  0  0  0
  2  6  1  0  0  0  0
  2  7  1  0  0  0  0
  2  8  1  0  0  0  0
  1  9  1  0  0  0  0
  2 10  1  0  0  0  0
  9 11  1  0  0  0  0
 10 11  1  0  0  0  0
  9 12  2  0  0  0  0
  9 13  2  0  0  0  0
 10 14  2  0  0  0  0
 10 15  2  0  0  0  0
 16 18  1  0  0  0  0
 16 19  1  0  0  0  0
 16 20  1  0  0  0  0
 17 21  1  0  0  0  0
 17 22  1  0  0  0  0
 17 23  1  0  0  0  0
 16 24  1  0  0  0  0
 17 25  1  0  0  0  0
 24 26  1  0  0  0  0
 25 26  1  0  0  0  0
 24 27  2  0  0  0  0
 24 28  2  0  0  0  0
 25 29  2  0  0  0  0
 25 30  2  0  0  0  0
 31 32  2  0  0  0  0
 31 33  1  0  0  0  0
 31 34  1  0  0  0  0
 32 35  1  0  0  0  0
 32 36  1  0  0  0  0
 35 37  4  0  0  0  0
 37 38  4  0  0  0  0
 38 39  4  0  0  0  0
 35 40  4  0  0  0  0
 39 41  4  0  0  0  0
 40 41  4  0  0  0  0
 40 42  1  0  0  0  0
 41 43  1  0  0  0  0
 38 44  1  0  0  0  0
 37 45  1  0  0  0  0
 39 46  1  0  0  0  0
 46 47  1  0  0  0  0
 46 48  1  0  0  0  0
 46 49  1  0  0  0  0
 47 50  1  0  0  0  0
 47 51  1  0  0  0  0
 51 52  1  0  0  0  0
 51 53  1  0  0  0  0
 51 54  1  0  0  0  0
 50 55  1  0  0  0  0
 52 55  1  0  0  0  0
 52 56  1  0  0  0  0
 52 57  1  0  0  0  0
 50 58  1  0  0  0  0
 50 59  1  0  0  0  0
 55 60  1  0  0  0  0
 60 61  1  0  0  0  0
 60 62  1  0  0  0  0
 60 63  1  0  0  0  0
 61 64  1  0  0  0  0
 61 65  1  0  0  0  0
 61 66  1  0  0  0  0
 64 67  1  0  0  0  0
 64 68  1  0  0  0  0
 64 69  1  0  0  0  0
 67 70  1  0  0  0  0
 67 71  1  0  0  0  0
 67 72  1  0  0  0  0
 55 73  1  0  0  0  0
 74 75  2  0  0  0  0
 74 76  1  0  0  0  0
 74 77  1  0  0  0  0
 75 78  1  0  0  0  0
 75 79  1  0  0  0  0
 78 80  4  0  0  0  0
 80 81  4  0  0  0  0
 81 82  4  0  0  0  0
 78 83  4  0  0  0  0
 82 84  4  0  0  0  0
 83 84  4  0  0  0  0
 83 85  1  0  0  0  0
 84 86  1  0  0  0  0
 81 87  1  0  0  0  0
 80 88  1  0  0  0  0
 82 89  1  0  0  0  0
 89 90  1  0  0  0  0
 89 91  1  0  0  0  0
 89 92  1  0  0  0  0
 90 93  1  0  0  0  0
 90 94  1  0  0  0  0
 94 95  1  0  0  0  0
 94 96  1  0  0  0  0
 94 97  1  0  0  0  0
 93 98  1  0  0  0  0
 95 98  1  0  0  0  0
 95 99  1  0  0  0  0
 95100  1  0  0  0  0
 93101  1  0  0  0  0
 93102  1  0  0  0  0
 98103  1  0  0  0  0
103104  1  0  0  0  0
103105  1  0  0  0  0
103106  1  0  0  0  0
104107  1  0  0  0  0
104108  1  0  0  0  0
104109  1  0  0  0  0
107110  1  0  0  0  0
107111  1  0  0  0  0
107112  1  0  0  0  0
110113  1  0  0  0  0
110114  1  0  0  0  0
110115  1  0  0  0  0
 98116  1  0  0  0  0
M  END
