 xtb: 6.7.1 (edcfbbe)
          10212513373D

116116  0     0  0            999 V2000
    4.1449    2.3822    3.9111 C   0  0  0  0  0  0  0  0  0  0  0  0
    2.7433    3.8399   -0.5557 C   0  0  0  0  0  0  0  0  0  0  0  0
    4.7455    1.3183    4.4431 F   0  0  0  0  0  0  0  0  0  0  0  0
    4.6429    3.4689    4.5116 F   0  0  0  0  0  0  0  0  0  0  0  0
    2.8520    2.3168    4.2333 F   0  0  0  0  0  0  0  0  0  0  0  0
    1.6282    3.5904    0.1360 F   0  0  0  0  0  0  0  0  0  0  0  0
    2.3983    4.6451   -1.5706 F   0  0  0  0  0  0  0  0  0  0  0  0
    3.1945    2.7108   -1.0820 F   0  0  0  0  0  0  0  0  0  0  0  0
    4.3969    2.5161    2.0519 S   0  0  0  0  0  0  0  0  0  0  0  0
    3.9850    4.7170    0.5498 S   0  0  0  0  0  0  0  0  0  0  0  0
    3.8737    4.0120    1.9418 N   0  0  0  0  0  0  0  0  0  0  0  0
    5.7993    2.3508    1.8567 O   0  0  0  0  0  0  0  0  0  0  0  0
    3.5056    1.5745    1.4591 O   0  0  0  0  0  0  0  0  0  0  0  0
    3.4293    6.0426    0.6697 O   0  0  0  0  0  0  0  0  0  0  0  0
    5.2500    4.6196   -0.1089 O   0  0  0  0  0  0  0  0  0  0  0  0
    3.9046    7.0394    8.6647 C   0  0  0  0  0  0  0  0  0  0  0  0
    5.5480   11.3350    7.1283 C   0  0  0  0  0  0  0  0  0  0  0  0
    2.6373    7.4352    8.6751 F   0  0  0  0  0  0  0  0  0  0  0  0
    3.9221    5.7398    8.9675 F   0  0  0  0  0  0  0  0  0  0  0  0
    4.5624    7.6894    9.6219 F   0  0  0  0  0  0  0  0  0  0  0  0
    5.0296   12.5374    6.8794 F   0  0  0  0  0  0  0  0  0  0  0  0
    5.9835   11.3240    8.3815 F   0  0  0  0  0  0  0  0  0  0  0  0
    6.6149   11.1876    6.3271 F   0  0  0  0  0  0  0  0  0  0  0  0
    4.7089    7.3376    6.9865 S   0  0  0  0  0  0  0  0  0  0  0  0
    4.3568    9.9321    6.7620 S   0  0  0  0  0  0  0  0  0  0  0  0
    5.3762    8.7570    7.0711 N   0  0  0  0  0  0  0  0  0  0  0  0
    5.7208    6.3330    6.8549 O   0  0  0  0  0  0  0  0  0  0  0  0
    3.6216    7.2923    6.0432 O   0  0  0  0  0  0  0  0  0  0  0  0
    4.0699   10.0944    5.3651 O   0  0  0  0  0  0  0  0  0  0  0  0
    3.2669   10.0160    7.6745 O   0  0  0  0  0  0  0  0  0  0  0  0
   10.7992    1.4045    3.1122 C   0  0  0  0  0  0  0  0  0  0  0  0
    9.9584    1.9614    3.9755 C   0  0  0  0  0  0  0  0  0  0  0  0
   11.5017    0.6499    3.4214 H   0  0  0  0  0  0  0  0  0  0  0  0
   10.8190    1.6687    2.0685 H   0  0  0  0  0  0  0  0  0  0  0  0
    8.9724    2.9924    3.6733 C   0  0  0  0  0  0  0  0  0  0  0  0
    9.9940    1.6608    5.0154 H   0  0  0  0  0  0  0  0  0  0  0  0
    8.6129    3.3360    2.3685 C   0  0  0  0  0  0  0  0  0  0  0  0
    7.6868    4.3317    2.1251 C   0  0  0  0  0  0  0  0  0  0  0  0
    7.0857    5.0130    3.1789 C   0  0  0  0  0  0  0  0  0  0  0  0
    8.3532    3.6693    4.7269 C   0  0  0  0  0  0  0  0  0  0  0  0
    7.4286    4.6726    4.4904 C   0  0  0  0  0  0  0  0  0  0  0  0
    8.5892    3.3962    5.7456 H   0  0  0  0  0  0  0  0  0  0  0  0
    6.9081    5.1308    5.3214 H   0  0  0  0  0  0  0  0  0  0  0  0
    7.3809    4.5473    1.1130 H   0  0  0  0  0  0  0  0  0  0  0  0
    9.0329    2.7987    1.5350 H   0  0  0  0  0  0  0  0  0  0  0  0
    6.0843    6.1030    2.9014 C   0  0  0  0  0  0  0  0  0  0  0  0
    6.6163    7.4753    2.9878 N   0  0  0  0  0  0  0  0  0  0  0  0
    5.2563    6.0140    3.6036 H   0  0  0  0  0  0  0  0  0  0  0  0
    5.6916    5.9689    1.8905 H   0  0  0  0  0  0  0  0  0  0  0  0
    7.9966    7.6128    2.7594 C   0  0  0  0  0  0  0  0  0  0  0  0
    6.3847    8.2041    4.2175 C   0  0  0  0  0  0  0  0  0  0  0  0
    7.6720    8.0477    5.0638 C   0  0  0  0  0  0  0  0  0  0  0  0
    5.5208    7.8201    4.7473 H   0  0  0  0  0  0  0  0  0  0  0  0
    6.1998    9.2563    3.9899 H   0  0  0  0  0  0  0  0  0  0  0  0
    8.6390    7.3981    4.1419 N   0  0  0  0  0  0  0  0  0  0  0  0
    7.4774    7.4321    5.9402 H   0  0  0  0  0  0  0  0  0  0  0  0
    8.0506    9.0169    5.3832 H   0  0  0  0  0  0  0  0  0  0  0  0
    8.2444    8.6375    2.4633 H   0  0  0  0  0  0  0  0  0  0  0  0
    8.3741    6.8907    2.0365 H   0  0  0  0  0  0  0  0  0  0  0  0
   10.0234    7.8734    4.2876 C   0  0  0  0  0  0  0  0  0  0  0  0
   10.9912    7.2383    3.2923 C   0  0  0  0  0  0  0  0  0  0  0  0
   10.3495    7.6545    5.3074 H   0  0  0  0  0  0  0  0  0  0  0  0
   10.0167    8.9586    4.1520 H   0  0  0  0  0  0  0  0  0  0  0  0
   11.1332    5.7267    3.4618 C   0  0  0  0  0  0  0  0  0  0  0  0
   11.9663    7.7045    3.4463 H   0  0  0  0  0  0  0  0  0  0  0  0
   10.6837    7.4653    2.2709 H   0  0  0  0  0  0  0  0  0  0  0  0
   12.1729    5.1583    2.5038 C   0  0  0  0  0  0  0  0  0  0  0  0
   10.1827    5.2305    3.2658 H   0  0  0  0  0  0  0  0  0  0  0  0
   11.4274    5.5002    4.4884 H   0  0  0  0  0  0  0  0  0  0  0  0
   12.2564    4.0843    2.6422 H   0  0  0  0  0  0  0  0  0  0  0  0
   13.1478    5.6073    2.6781 H   0  0  0  0  0  0  0  0  0  0  0  0
   11.8850    5.3496    1.4729 H   0  0  0  0  0  0  0  0  0  0  0  0
    8.5716    6.3700    4.3017 H   0  0  0  0  0  0  0  0  0  0  0  0
   -2.1875    7.5277    8.4161 C   0  0  0  0  0  0  0  0  0  0  0  0
   -1.1054    8.1805    8.0085 C   0  0  0  0  0  0  0  0  0  0  0  0
   -2.2928    7.2044    9.4373 H   0  0  0  0  0  0  0  0  0  0  0  0
   -3.0063    7.2824    7.7606 H   0  0  0  0  0  0  0  0  0  0  0  0
   -0.8383    8.6556    6.6566 C   0  0  0  0  0  0  0  0  0  0  0  0
   -0.3083    8.3810    8.7120 H   0  0  0  0  0  0  0  0  0  0  0  0
    0.4156    9.2013    6.3726 C   0  0  0  0  0  0  0  0  0  0  0  0
    0.7325    9.6388    5.0996 C   0  0  0  0  0  0  0  0  0  0  0  0
   -0.1963    9.5426    4.0624 C   0  0  0  0  0  0  0  0  0  0  0  0
   -1.7738    8.5892    5.6222 C   0  0  0  0  0  0  0  0  0  0  0  0
   -1.4536    9.0193    4.3487 C   0  0  0  0  0  0  0  0  0  0  0  0
   -2.7609    8.1970    5.8102 H   0  0  0  0  0  0  0  0  0  0  0  0
   -2.1942    8.9559    3.5631 H   0  0  0  0  0  0  0  0  0  0  0  0
    1.7075   10.0737    4.9336 H   0  0  0  0  0  0  0  0  0  0  0  0
    1.1572    9.2893    7.1512 H   0  0  0  0  0  0  0  0  0  0  0  0
    0.1470    9.9636    2.6530 C   0  0  0  0  0  0  0  0  0  0  0  0
    1.1187    9.1255    1.9524 N   0  0  0  0  0  0  0  0  0  0  0  0
    0.5386   10.9823    2.6489 H   0  0  0  0  0  0  0  0  0  0  0  0
   -0.7650    9.9579    2.0470 H   0  0  0  0  0  0  0  0  0  0  0  0
    0.9840    7.7203    2.1373 C   0  0  0  0  0  0  0  0  0  0  0  0
    2.5318    9.3876    2.1842 C   0  0  0  0  0  0  0  0  0  0  0  0
    3.0550    8.2157    3.0444 C   0  0  0  0  0  0  0  0  0  0  0  0
    2.6820   10.3483    2.6743 H   0  0  0  0  0  0  0  0  0  0  0  0
    3.0444    9.3973    1.2192 H   0  0  0  0  0  0  0  0  0  0  0  0
    1.8543    7.4019    3.3291 N   0  0  0  0  0  0  0  0  0  0  0  0
    3.5103    8.5559    3.9712 H   0  0  0  0  0  0  0  0  0  0  0  0
    3.7449    7.6034    2.4662 H   0  0  0  0  0  0  0  0  0  0  0  0
    1.4291    7.1795    1.2936 H   0  0  0  0  0  0  0  0  0  0  0  0
   -0.0510    7.4230    2.2995 H   0  0  0  0  0  0  0  0  0  0  0  0
    2.1432    5.9781    3.5852 C   0  0  0  0  0  0  0  0  0  0  0  0
    0.8880    5.1327    3.7681 C   0  0  0  0  0  0  0  0  0  0  0  0
    2.7578    5.9404    4.4854 H   0  0  0  0  0  0  0  0  0  0  0  0
    2.7173    5.5831    2.7456 H   0  0  0  0  0  0  0  0  0  0  0  0
    0.0147    5.5348    4.9585 C   0  0  0  0  0  0  0  0  0  0  0  0
    1.2256    4.1063    3.9078 H   0  0  0  0  0  0  0  0  0  0  0  0
    0.2955    5.1470    2.8517 H   0  0  0  0  0  0  0  0  0  0  0  0
    0.7543    5.4612    6.2899 C   0  0  0  0  0  0  0  0  0  0  0  0
   -0.8383    4.8542    4.9915 H   0  0  0  0  0  0  0  0  0  0  0  0
   -0.3863    6.5413    4.8196 H   0  0  0  0  0  0  0  0  0  0  0  0
    1.5604    6.1884    6.3420 H   0  0  0  0  0  0  0  0  0  0  0  0
    1.1748    4.4680    6.4286 H   0  0  0  0  0  0  0  0  0  0  0  0
    0.0684    5.6646    7.1087 H   0  0  0  0  0  0  0  0  0  0  0  0
    1.4039    7.7999    4.1688 H   0  0  0  0  0  0  0  0  0  0  0  0
  1  3  1  0  0  0  0
  1  4  1  0  0  0  0
  1  5  1  0  0  0  0
  2  6  1  0  0  0  0
  2  7  1  0  0  0  0
  2  8  1  0  0  0  0
  1  9  1  0  0  0  0
  2 10  1  0  0  0  0
  9 11  1  0  0  0  0
 10 11  1  0  0  0  0
  9 12  2  0  0  0  0
  9 13  2  0  0  0  0
 10 14  2  0  0  0  0
 10 15  2  0  0  0  0
 16 18  1  0  0  0  0
 16 19  1  0  0  0  0
 16 20  1  0  0  0  0
 17 21  1  0  0  0  0
 17 22  1  0  0  0  0
 17 23  1  0  0  0  0
 16 24  1  0  0  0  0
 17 25  1  0  0  0  0
 24 26  1  0  0  0  0
 25 26  1  0  0  0  0
 24 27  2  0  0  0  0
 24 28  2  0  0  0  0
 25 29  2  0  0  0  0
 25 30  2  0  0  0  0
 31 32  2  0  0  0  0
 31 33  1  0  0  0  0
 31 34  1  0  0  0  0
 32 35  1  0  0  0  0
 32 36  1  0  0  0  0
 35 37  4  0  0  0  0
 37 38  4  0  0  0  0
 38 39  4  0  0  0  0
 35 40  4  0  0  0  0
 39 41  4  0  0  0  0
 40 41  4  0  0  0  0
 40 42  1  0  0  0  0
 41 43  1  0  0  0  0
 38 44  1  0  0  0  0
 37 45  1  0  0  0  0
 39 46  1  0  0  0  0
 46 47  1  0  0  0  0
 46 48  1  0  0  0  0
 46 49  1  0  0  0  0
 47 50  1  0  0  0  0
 47 51  1  0  0  0  0
 51 52  1  0  0  0  0
 51 53  1  0  0  0  0
 51 54  1  0  0  0  0
 50 55  1  0  0  0  0
 52 55  1  0  0  0  0
 52 56  1  0  0  0  0
 52 57  1  0  0  0  0
 50 58  1  0  0  0  0
 50 59  1  0  0  0  0
 55 60  1  0  0  0  0
 60 61  1  0  0  0  0
 60 62  1  0  0  0  0
 60 63  1  0  0  0  0
 61 64  1  0  0  0  0
 61 65  1  0  0  0  0
 61 66  1  0  0  0  0
 64 67  1  0  0  0  0
 64 68  1  0  0  0  0
 64 69  1  0  0  0  0
 67 70  1  0  0  0  0
 67 71  1  0  0  0  0
 67 72  1  0  0  0  0
 55 73  1  0  0  0  0
 74 75  2  0  0  0  0
 74 76  1  0  0  0  0
 74 77  1  0  0  0  0
 75 78  1  0  0  0  0
 75 79  1  0  0  0  0
 78 80  4  0  0  0  0
 80 81  4  0  0  0  0
 81 82  4  0  0  0  0
 78 83  4  0  0  0  0
 82 84  4  0  0  0  0
 83 84  4  0  0  0  0
 83 85  1  0  0  0  0
 84 86  1  0  0  0  0
 81 87  1  0  0  0  0
 80 88  1  0  0  0  0
 82 89  1  0  0  0  0
 89 90  1  0  0  0  0
 89 91  1  0  0  0  0
 89 92  1  0  0  0  0
 90 93  1  0  0  0  0
 90 94  1  0  0  0  0
 94 95  1  0  0  0  0
 94 96  1  0  0  0  0
 94 97  1  0  0  0  0
 93 98  1  0  0  0  0
 95 98  1  0  0  0  0
 95 99  1  0  0  0  0
 95100  1  0  0  0  0
 93101  1  0  0  0  0
 93102  1  0  0  0  0
 98103  1  0  0  0  0
103104  1  0  0  0  0
103105  1  0  0  0  0
103106  1  0  0  0  0
104107  1  0  0  0  0
104108  1  0  0  0  0
104109  1  0  0  0  0
107110  1  0  0  0  0
107111  1  0  0  0  0
107112  1  0  0  0  0
110113  1  0  0  0  0
110114  1  0  0  0  0
110115  1  0  0  0  0
 98116  1  0  0  0  0
M  END
