 xtb: 6.7.1 (edcfbbe)
          10212513313D

116116  0     0  0            999 V2000
    5.2457    3.3066    7.7050 C   0  0  0  0  0  0  0  0  0  0  0  0
    4.0604    6.7497   10.8493 C   0  0  0  0  0  0  0  0  0  0  0  0
    6.1718    2.5678    8.3209 F   0  0  0  0  0  0  0  0  0  0  0  0
    4.1267    3.1754    8.3984 F   0  0  0  0  0  0  0  0  0  0  0  0
    5.0836    2.7355    6.5122 F   0  0  0  0  0  0  0  0  0  0  0  0
    2.8739    6.4891   10.3089 F   0  0  0  0  0  0  0  0  0  0  0  0
    4.0323    6.3309   12.1237 F   0  0  0  0  0  0  0  0  0  0  0  0
    4.2213    8.0748   10.8946 F   0  0  0  0  0  0  0  0  0  0  0  0
    5.9064    5.0761    7.5766 S   0  0  0  0  0  0  0  0  0  0  0  0
    5.4725    5.9068    9.9327 S   0  0  0  0  0  0  0  0  0  0  0  0
    5.0221    6.0798    8.4191 N   0  0  0  0  0  0  0  0  0  0  0  0
    7.1755    4.9305    8.2874 O   0  0  0  0  0  0  0  0  0  0  0  0
    6.1108    5.3924    6.2002 O   0  0  0  0  0  0  0  0  0  0  0  0
    5.4427    4.5653   10.4143 O   0  0  0  0  0  0  0  0  0  0  0  0
    6.6117    6.7181   10.2885 O   0  0  0  0  0  0  0  0  0  0  0  0
    3.9434    9.3600    7.9499 C   0  0  0  0  0  0  0  0  0  0  0  0
    1.2250    5.3326    5.9082 C   0  0  0  0  0  0  0  0  0  0  0  0
    2.9827    8.9740    8.7770 F   0  0  0  0  0  0  0  0  0  0  0  0
    5.1228    9.2604    8.5672 F   0  0  0  0  0  0  0  0  0  0  0  0
    3.7544   10.6622    7.6898 F   0  0  0  0  0  0  0  0  0  0  0  0
    1.0023    4.5169    4.8628 F   0  0  0  0  0  0  0  0  0  0  0  0
    0.9015    4.6764    7.0139 F   0  0  0  0  0  0  0  0  0  0  0  0
    0.3709    6.3540    5.7816 F   0  0  0  0  0  0  0  0  0  0  0  0
    3.9264    8.3349    6.3706 S   0  0  0  0  0  0  0  0  0  0  0  0
    3.0317    5.8876    5.9433 S   0  0  0  0  0  0  0  0  0  0  0  0
    2.8793    7.2252    6.7395 N   0  0  0  0  0  0  0  0  0  0  0  0
    3.4280    9.2343    5.3552 O   0  0  0  0  0  0  0  0  0  0  0  0
    5.2753    7.9203    6.1292 O   0  0  0  0  0  0  0  0  0  0  0  0
    3.3518    6.1257    4.5478 O   0  0  0  0  0  0  0  0  0  0  0  0
    3.6784    4.7859    6.5847 O   0  0  0  0  0  0  0  0  0  0  0  0
    5.3969    0.9120    0.8468 C   0  0  0  0  0  0  0  0  0  0  0  0
    5.3170    1.7361    1.8839 C   0  0  0  0  0  0  0  0  0  0  0  0
    4.9682   -0.0742    0.8792 H   0  0  0  0  0  0  0  0  0  0  0  0
    5.8850    1.1790   -0.0749 H   0  0  0  0  0  0  0  0  0  0  0  0
    5.8460    3.0917    1.9650 C   0  0  0  0  0  0  0  0  0  0  0  0
    4.8127    1.4083    2.7818 H   0  0  0  0  0  0  0  0  0  0  0  0
    6.5878    3.6890    0.9429 C   0  0  0  0  0  0  0  0  0  0  0  0
    7.0627    4.9789    1.0745 C   0  0  0  0  0  0  0  0  0  0  0  0
    6.8100    5.7159    2.2284 C   0  0  0  0  0  0  0  0  0  0  0  0
    5.6155    3.8315    3.1270 C   0  0  0  0  0  0  0  0  0  0  0  0
    6.0853    5.1232    3.2564 C   0  0  0  0  0  0  0  0  0  0  0  0
    5.0697    3.4025    3.9525 H   0  0  0  0  0  0  0  0  0  0  0  0
    5.9002    5.6486    4.1780 H   0  0  0  0  0  0  0  0  0  0  0  0
    7.6537    5.4117    0.2775 H   0  0  0  0  0  0  0  0  0  0  0  0
    6.8036    3.1396    0.0396 H   0  0  0  0  0  0  0  0  0  0  0  0
    7.2656    7.1455    2.3576 C   0  0  0  0  0  0  0  0  0  0  0  0
    6.2595    8.1551    2.0151 N   0  0  0  0  0  0  0  0  0  0  0  0
    8.1178    7.3313    1.6966 H   0  0  0  0  0  0  0  0  0  0  0  0
    7.5710    7.3408    3.3855 H   0  0  0  0  0  0  0  0  0  0  0  0
    5.2817    8.4778    3.0131 C   0  0  0  0  0  0  0  0  0  0  0  0
    5.5040    7.8930    0.8104 C   0  0  0  0  0  0  0  0  0  0  0  0
    4.2269    7.2010    1.3067 C   0  0  0  0  0  0  0  0  0  0  0  0
    6.0685    7.2791    0.1138 H   0  0  0  0  0  0  0  0  0  0  0  0
    5.2605    8.8454    0.3279 H   0  0  0  0  0  0  0  0  0  0  0  0
    3.9390    7.9148    2.5675 N   0  0  0  0  0  0  0  0  0  0  0  0
    4.4192    6.1507    1.5218 H   0  0  0  0  0  0  0  0  0  0  0  0
    3.3994    7.2849    0.6087 H   0  0  0  0  0  0  0  0  0  0  0  0
    5.1636    9.5644    3.0823 H   0  0  0  0  0  0  0  0  0  0  0  0
    5.5379    8.0936    4.0021 H   0  0  0  0  0  0  0  0  0  0  0  0
    2.9328    8.9935    2.4202 C   0  0  0  0  0  0  0  0  0  0  0  0
    1.5455    8.5201    1.9996 C   0  0  0  0  0  0  0  0  0  0  0  0
    3.3181    9.7038    1.6829 H   0  0  0  0  0  0  0  0  0  0  0  0
    2.8601    9.4783    3.3961 H   0  0  0  0  0  0  0  0  0  0  0  0
    0.9004    7.5737    3.0090 C   0  0  0  0  0  0  0  0  0  0  0  0
    1.5617    8.0489    1.0130 H   0  0  0  0  0  0  0  0  0  0  0  0
    0.9243    9.4153    1.9109 H   0  0  0  0  0  0  0  0  0  0  0  0
   -0.5231    7.2218    2.5972 C   0  0  0  0  0  0  0  0  0  0  0  0
    0.8940    8.0526    3.9887 H   0  0  0  0  0  0  0  0  0  0  0  0
    1.4840    6.6556    3.0947 H   0  0  0  0  0  0  0  0  0  0  0  0
   -0.5292    6.7126    1.6352 H   0  0  0  0  0  0  0  0  0  0  0  0
   -1.1329    8.1188    2.5149 H   0  0  0  0  0  0  0  0  0  0  0  0
   -0.9751    6.5657    3.3352 H   0  0  0  0  0  0  0  0  0  0  0  0
    3.6140    7.2593    3.3096 H   0  0  0  0  0  0  0  0  0  0  0  0
    8.7935    0.0313    8.6725 C   0  0  0  0  0  0  0  0  0  0  0  0
    8.3687    0.9406    9.5406 C   0  0  0  0  0  0  0  0  0  0  0  0
    8.2344   -0.8697    8.4872 H   0  0  0  0  0  0  0  0  0  0  0  0
    9.6985    0.1496    8.1024 H   0  0  0  0  0  0  0  0  0  0  0  0
    9.0292    2.1986    9.8657 C   0  0  0  0  0  0  0  0  0  0  0  0
    7.4320    0.7819   10.0559 H   0  0  0  0  0  0  0  0  0  0  0  0
   10.3758    2.4376    9.5878 C   0  0  0  0  0  0  0  0  0  0  0  0
   10.9607    3.6411    9.9262 C   0  0  0  0  0  0  0  0  0  0  0  0
   10.2190    4.6493   10.5365 C   0  0  0  0  0  0  0  0  0  0  0  0
    8.2974    3.2017   10.5012 C   0  0  0  0  0  0  0  0  0  0  0  0
    8.8790    4.4118   10.8211 C   0  0  0  0  0  0  0  0  0  0  0  0
    7.2542    3.0509   10.7236 H   0  0  0  0  0  0  0  0  0  0  0  0
    8.2757    5.1703   11.2962 H   0  0  0  0  0  0  0  0  0  0  0  0
   12.0142    3.7946    9.7279 H   0  0  0  0  0  0  0  0  0  0  0  0
   10.9762    1.6702    9.1223 H   0  0  0  0  0  0  0  0  0  0  0  0
   10.8609    5.9684   10.8829 C   0  0  0  0  0  0  0  0  0  0  0  0
   10.7415    7.0295    9.8817 N   0  0  0  0  0  0  0  0  0  0  0  0
   11.9339    5.8279   11.0436 H   0  0  0  0  0  0  0  0  0  0  0  0
   10.4308    6.3620   11.8051 H   0  0  0  0  0  0  0  0  0  0  0  0
    9.4549    7.6210    9.6997 C   0  0  0  0  0  0  0  0  0  0  0  0
   11.1645    6.6804    8.5410 C   0  0  0  0  0  0  0  0  0  0  0  0
    9.8864    6.2122    7.8218 C   0  0  0  0  0  0  0  0  0  0  0  0
   11.9364    5.9156    8.5603 H   0  0  0  0  0  0  0  0  0  0  0  0
   11.5663    7.5787    8.0608 H   0  0  0  0  0  0  0  0  0  0  0  0
    8.8088    6.9601    8.5064 N   0  0  0  0  0  0  0  0  0  0  0  0
    9.7123    5.1458    7.9665 H   0  0  0  0  0  0  0  0  0  0  0  0
    9.8939    6.4260    6.7572 H   0  0  0  0  0  0  0  0  0  0  0  0
    9.5829    8.6806    9.4541 H   0  0  0  0  0  0  0  0  0  0  0  0
    8.7984    7.5200   10.5626 H   0  0  0  0  0  0  0  0  0  0  0  0
    8.0118    7.8882    7.6753 C   0  0  0  0  0  0  0  0  0  0  0  0
    8.8179    8.8529    6.8098 C   0  0  0  0  0  0  0  0  0  0  0  0
    7.3728    8.4442    8.3623 H   0  0  0  0  0  0  0  0  0  0  0  0
    7.3483    7.2956    7.0408 H   0  0  0  0  0  0  0  0  0  0  0  0
    7.8681    9.8719    6.1737 C   0  0  0  0  0  0  0  0  0  0  0  0
    9.3263    8.3142    6.0087 H   0  0  0  0  0  0  0  0  0  0  0  0
    9.5769    9.3764    7.3953 H   0  0  0  0  0  0  0  0  0  0  0  0
    8.5185   10.6014    5.0051 C   0  0  0  0  0  0  0  0  0  0  0  0
    7.5533   10.5942    6.9283 H   0  0  0  0  0  0  0  0  0  0  0  0
    6.9756    9.3456    5.8352 H   0  0  0  0  0  0  0  0  0  0  0  0
    9.4085   11.1377    5.3294 H   0  0  0  0  0  0  0  0  0  0  0  0
    7.8242   11.3191    4.5770 H   0  0  0  0  0  0  0  0  0  0  0  0
    8.8056    9.8991    4.2248 H   0  0  0  0  0  0  0  0  0  0  0  0
    8.1083    6.2533    8.8324 H   0  0  0  0  0  0  0  0  0  0  0  0
  1  3  1  0  0  0  0
  1  4  1  0  0  0  0
  1  5  1  0  0  0  0
  2  6  1  0  0  0  0
  2  7  1  0  0  0  0
  2  8  1  0  0  0  0
  1  9  1  0  0  0  0
  2 10  1  0  0  0  0
  9 11  1  0  0  0  0
 10 11  1  0  0  0  0
  9 12  2  0  0  0  0
  9 13  2  0  0  0  0
 10 14  2  0  0  0  0
 10 15  2  0  0  0  0
 16 18  1  0  0  0  0
 16 19  1  0  0  0  0
 16 20  1  0  0  0  0
 17 21  1  0  0  0  0
 17 22  1  0  0  0  0
 17 23  1  0  0  0  0
 16 24  1  0  0  0  0
 17 25  1  0  0  0  0
 24 26  1  0  0  0  0
 25 26  1  0  0  0  0
 24 27  2  0  0  0  0
 24 28  2  0  0  0  0
 25 29  2  0  0  0  0
 25 30  2  0  0  0  0
 31 32  2  0  0  0  0
 31 33  1  0  0  0  0
 31 34  1  0  0  0  0
 32 35  1  0  0  0  0
 32 36  1  0  0  0  0
 35 37  4  0  0  0  0
 37 38  4  0  0  0  0
 38 39  4  0  0  0  0
 35 40  4  0  0  0  0
 39 41  4  0  0  0  0
 40 41  4  0  0  0  0
 40 42  1  0  0  0  0
 41 43  1  0  0  0  0
 38 44  1  0  0  0  0
 37 45  1  0  0  0  0
 39 46  1  0  0  0  0
 46 47  1  0  0  0  0
 46 48  1  0  0  0  0
 46 49  1  0  0  0  0
 47 50  1  0  0  0  0
 47 51  1  0  0  0  0
 51 52  1  0  0  0  0
 51 53  1  0  0  0  0
 51 54  1  0  0  0  0
 50 55  1  0  0  0  0
 52 55  1  0  0  0  0
 52 56  1  0  0  0  0
 52 57  1  0  0  0  0
 50 58  1  0  0  0  0
 50 59  1  0  0  0  0
 55 60  1  0  0  0  0
 60 61  1  0  0  0  0
 60 62  1  0  0  0  0
 60 63  1  0  0  0  0
 61 64  1  0  0  0  0
 61 65  1  0  0  0  0
 61 66  1  0  0  0  0
 64 67  1  0  0  0  0
 64 68  1  0  0  0  0
 64 69  1  0  0  0  0
 67 70  1  0  0  0  0
 67 71  1  0  0  0  0
 67 72  1  0  0  0  0
 55 73  1  0  0  0  0
 74 75  2  0  0  0  0
 74 76  1  0  0  0  0
 74 77  1  0  0  0  0
 75 78  1  0  0  0  0
 75 79  1  0  0  0  0
 78 80  4  0  0  0  0
 80 81  4  0  0  0  0
 81 82  4  0  0  0  0
 78 83  4  0  0  0  0
 82 84  4  0  0  0  0
 83 84  4  0  0  0  0
 83 85  1  0  0  0  0
 84 86  1  0  0  0  0
 81 87  1  0  0  0  0
 80 88  1  0  0  0  0
 82 89  1  0  0  0  0
 89 90  1  0  0  0  0
 89 91  1  0  0  0  0
 89 92  1  0  0  0  0
 90 93  1  0  0  0  0
 90 94  1  0  0  0  0
 94 95  1  0  0  0  0
 94 96  1  0  0  0  0
 94 97  1  0  0  0  0
 93 98  1  0  0  0  0
 95 98  1  0  0  0  0
 95 99  1  0  0  0  0
 95100  1  0  0  0  0
 93101  1  0  0  0  0
 93102  1  0  0  0  0
 98103  1  0  0  0  0
103104  1  0  0  0  0
103105  1  0  0  0  0
103106  1  0  0  0  0
104107  1  0  0  0  0
104108  1  0  0  0  0
104109  1  0  0  0  0
107110  1  0  0  0  0
107111  1  0  0  0  0
107112  1  0  0  0  0
110113  1  0  0  0  0
110114  1  0  0  0  0
110115  1  0  0  0  0
 98116  1  0  0  0  0
M  END
