 xtb: 6.7.1 (edcfbbe)
          10212513363D

116116  0     0  0            999 V2000
    4.6397   10.3931    9.8661 C   0  0  0  0  0  0  0  0  0  0  0  0
    6.7252   12.0834    6.0797 C   0  0  0  0  0  0  0  0  0  0  0  0
    3.6265   11.0510   10.4319 F   0  0  0  0  0  0  0  0  0  0  0  0
    4.6409    9.1567   10.3649 F   0  0  0  0  0  0  0  0  0  0  0  0
    5.7722   10.9830   10.2355 F   0  0  0  0  0  0  0  0  0  0  0  0
    7.1256   11.0052    5.4127 F   0  0  0  0  0  0  0  0  0  0  0  0
    7.2362   13.1428    5.4488 F   0  0  0  0  0  0  0  0  0  0  0  0
    7.2494   12.0524    7.3003 F   0  0  0  0  0  0  0  0  0  0  0  0
    4.4518   10.3962    8.0048 S   0  0  0  0  0  0  0  0  0  0  0  0
    4.8415   12.2094    6.2051 S   0  0  0  0  0  0  0  0  0  0  0  0
    4.5644   11.9424    7.7352 N   0  0  0  0  0  0  0  0  0  0  0  0
    5.5011    9.6013    7.4644 O   0  0  0  0  0  0  0  0  0  0  0  0
    3.1082    9.8942    7.7910 O   0  0  0  0  0  0  0  0  0  0  0  0
    4.3034   11.1419    5.3968 O   0  0  0  0  0  0  0  0  0  0  0  0
    4.5160   13.5370    5.8019 O   0  0  0  0  0  0  0  0  0  0  0  0
    3.3562    6.4107    9.1045 C   0  0  0  0  0  0  0  0  0  0  0  0
    4.1243    2.4793   11.0025 C   0  0  0  0  0  0  0  0  0  0  0  0
    4.5187    6.9132    8.7129 F   0  0  0  0  0  0  0  0  0  0  0  0
    2.4275    7.3687    8.9948 F   0  0  0  0  0  0  0  0  0  0  0  0
    3.4356    6.0816   10.3896 F   0  0  0  0  0  0  0  0  0  0  0  0
    5.2890    1.9715   11.4066 F   0  0  0  0  0  0  0  0  0  0  0  0
    3.7677    3.4221   11.8645 F   0  0  0  0  0  0  0  0  0  0  0  0
    3.2186    1.5087   11.0447 F   0  0  0  0  0  0  0  0  0  0  0  0
    2.8467    4.9356    8.0346 S   0  0  0  0  0  0  0  0  0  0  0  0
    4.2939    3.1815    9.2713 S   0  0  0  0  0  0  0  0  0  0  0  0
    2.8253    3.7164    9.0198 N   0  0  0  0  0  0  0  0  0  0  0  0
    1.5689    5.2859    7.5069 O   0  0  0  0  0  0  0  0  0  0  0  0
    3.9033    4.8188    7.0485 O   0  0  0  0  0  0  0  0  0  0  0  0
    4.6820    2.0753    8.4446 O   0  0  0  0  0  0  0  0  0  0  0  0
    5.2670    4.2343    9.3551 O   0  0  0  0  0  0  0  0  0  0  0  0
   10.3798   12.4539    8.5396 C   0  0  0  0  0  0  0  0  0  0  0  0
   10.5604   11.4454    7.6964 C   0  0  0  0  0  0  0  0  0  0  0  0
   11.0148   13.3235    8.5202 H   0  0  0  0  0  0  0  0  0  0  0  0
    9.5839   12.4626    9.2642 H   0  0  0  0  0  0  0  0  0  0  0  0
    9.7472   10.2372    7.6186 C   0  0  0  0  0  0  0  0  0  0  0  0
   11.3534   11.5077    6.9595 H   0  0  0  0  0  0  0  0  0  0  0  0
    8.9118    9.8211    8.6557 C   0  0  0  0  0  0  0  0  0  0  0  0
    8.1284    8.6930    8.5215 C   0  0  0  0  0  0  0  0  0  0  0  0
    8.1416    7.9570    7.3444 C   0  0  0  0  0  0  0  0  0  0  0  0
    9.7862    9.4666    6.4564 C   0  0  0  0  0  0  0  0  0  0  0  0
    8.9851    8.3518    6.3151 C   0  0  0  0  0  0  0  0  0  0  0  0
   10.4336    9.7685    5.6441 H   0  0  0  0  0  0  0  0  0  0  0  0
    8.9996    7.7762    5.4021 H   0  0  0  0  0  0  0  0  0  0  0  0
    7.4800    8.3855    9.3285 H   0  0  0  0  0  0  0  0  0  0  0  0
    8.8761   10.3866    9.5733 H   0  0  0  0  0  0  0  0  0  0  0  0
    7.1951    6.8030    7.1606 C   0  0  0  0  0  0  0  0  0  0  0  0
    7.7522    5.7952    6.2592 N   0  0  0  0  0  0  0  0  0  0  0  0
    6.2859    7.2106    6.7144 H   0  0  0  0  0  0  0  0  0  0  0  0
    6.9169    6.3784    8.1314 H   0  0  0  0  0  0  0  0  0  0  0  0
    6.8159    5.0583    5.4990 C   0  0  0  0  0  0  0  0  0  0  0  0
    8.5194    4.7693    6.9331 C   0  0  0  0  0  0  0  0  0  0  0  0
    7.4822    3.6919    7.3326 C   0  0  0  0  0  0  0  0  0  0  0  0
    9.0508    5.1824    7.7866 H   0  0  0  0  0  0  0  0  0  0  0  0
    9.2492    4.3577    6.2289 H   0  0  0  0  0  0  0  0  0  0  0  0
    6.3516    3.9219    6.3998 N   0  0  0  0  0  0  0  0  0  0  0  0
    7.1275    3.8328    8.3524 H   0  0  0  0  0  0  0  0  0  0  0  0
    7.8648    2.6795    7.2273 H   0  0  0  0  0  0  0  0  0  0  0  0
    7.3177    4.6041    4.6385 H   0  0  0  0  0  0  0  0  0  0  0  0
    5.9664    5.6521    5.1681 H   0  0  0  0  0  0  0  0  0  0  0  0
    5.8141    2.7361    5.7019 C   0  0  0  0  0  0  0  0  0  0  0  0
    6.7923    2.0275    4.7692 C   0  0  0  0  0  0  0  0  0  0  0  0
    4.9396    3.0712    5.1410 H   0  0  0  0  0  0  0  0  0  0  0  0
    5.4668    2.0545    6.4809 H   0  0  0  0  0  0  0  0  0  0  0  0
    6.2745    0.6291    4.4133 C   0  0  0  0  0  0  0  0  0  0  0  0
    7.7719    1.9231    5.2372 H   0  0  0  0  0  0  0  0  0  0  0  0
    6.9180    2.5980    3.8472 H   0  0  0  0  0  0  0  0  0  0  0  0
    6.3734   -0.3533    5.5749 C   0  0  0  0  0  0  0  0  0  0  0  0
    6.8601    0.2459    3.5757 H   0  0  0  0  0  0  0  0  0  0  0  0
    5.2366    0.7062    4.0854 H   0  0  0  0  0  0  0  0  0  0  0  0
    7.4054   -0.4492    5.9056 H   0  0  0  0  0  0  0  0  0  0  0  0
    6.0269   -1.3343    5.2616 H   0  0  0  0  0  0  0  0  0  0  0  0
    5.7677   -0.0364    6.4196 H   0  0  0  0  0  0  0  0  0  0  0  0
    5.5420    4.2911    6.9384 H   0  0  0  0  0  0  0  0  0  0  0  0
    7.7463    6.4746    0.4548 C   0  0  0  0  0  0  0  0  0  0  0  0
    7.5949    7.3087    1.4770 C   0  0  0  0  0  0  0  0  0  0  0  0
    8.6053    6.5318   -0.1914 H   0  0  0  0  0  0  0  0  0  0  0  0
    7.0275    5.7102    0.2124 H   0  0  0  0  0  0  0  0  0  0  0  0
    6.4857    7.3431    2.4225 C   0  0  0  0  0  0  0  0  0  0  0  0
    8.3585    8.0545    1.6604 H   0  0  0  0  0  0  0  0  0  0  0  0
    6.5304    8.2505    3.4821 C   0  0  0  0  0  0  0  0  0  0  0  0
    5.5122    8.3144    4.4145 C   0  0  0  0  0  0  0  0  0  0  0  0
    4.4137    7.4707    4.3120 C   0  0  0  0  0  0  0  0  0  0  0  0
    5.3690    6.5091    2.3189 C   0  0  0  0  0  0  0  0  0  0  0  0
    4.3502    6.5750    3.2472 C   0  0  0  0  0  0  0  0  0  0  0  0
    5.2939    5.8077    1.5020 H   0  0  0  0  0  0  0  0  0  0  0  0
    3.4883    5.9305    3.1581 H   0  0  0  0  0  0  0  0  0  0  0  0
    5.5706    9.0222    5.2251 H   0  0  0  0  0  0  0  0  0  0  0  0
    7.3706    8.9205    3.5818 H   0  0  0  0  0  0  0  0  0  0  0  0
    3.3085    7.5086    5.3326 C   0  0  0  0  0  0  0  0  0  0  0  0
    2.0629    7.9359    4.6902 N   0  0  0  0  0  0  0  0  0  0  0  0
    3.5973    8.1652    6.1617 H   0  0  0  0  0  0  0  0  0  0  0  0
    3.1489    6.5029    5.7261 H   0  0  0  0  0  0  0  0  0  0  0  0
    1.9515    9.3455    4.5415 C   0  0  0  0  0  0  0  0  0  0  0  0
    0.8461    7.5582    5.3794 C   0  0  0  0  0  0  0  0  0  0  0  0
    0.5827    8.6972    6.3828 C   0  0  0  0  0  0  0  0  0  0  0  0
    0.9448    6.5965    5.8785 H   0  0  0  0  0  0  0  0  0  0  0  0
    0.0401    7.5020    4.6412 H   0  0  0  0  0  0  0  0  0  0  0  0
    1.3263    9.8616    5.8270 N   0  0  0  0  0  0  0  0  0  0  0  0
    0.9832    8.4516    7.3641 H   0  0  0  0  0  0  0  0  0  0  0  0
   -0.4782    8.9273    6.4653 H   0  0  0  0  0  0  0  0  0  0  0  0
    1.2587    9.5811    3.7268 H   0  0  0  0  0  0  0  0  0  0  0  0
    2.9211    9.8183    4.3852 H   0  0  0  0  0  0  0  0  0  0  0  0
    0.4972   11.0747    5.7152 C   0  0  0  0  0  0  0  0  0  0  0  0
    1.2715   12.3602    5.4235 C   0  0  0  0  0  0  0  0  0  0  0  0
   -0.0024   11.1977    6.6787 H   0  0  0  0  0  0  0  0  0  0  0  0
   -0.2632   10.9000    4.9488 H   0  0  0  0  0  0  0  0  0  0  0  0
    1.6983   12.5872    3.9725 C   0  0  0  0  0  0  0  0  0  0  0  0
    2.1635   12.3926    6.0504 H   0  0  0  0  0  0  0  0  0  0  0  0
    0.6298   13.1919    5.7206 H   0  0  0  0  0  0  0  0  0  0  0  0
    0.5374   12.6062    2.9825 C   0  0  0  0  0  0  0  0  0  0  0  0
    2.4351   11.8425    3.6788 H   0  0  0  0  0  0  0  0  0  0  0  0
    2.2047   13.5521    3.9449 H   0  0  0  0  0  0  0  0  0  0  0  0
    0.8954   12.9078    2.0018 H   0  0  0  0  0  0  0  0  0  0  0  0
   -0.2253   13.3152    3.2974 H   0  0  0  0  0  0  0  0  0  0  0  0
    0.0743   11.6272    2.8738 H   0  0  0  0  0  0  0  0  0  0  0  0
    2.1144   10.0567    6.4890 H   0  0  0  0  0  0  0  0  0  0  0  0
  1  3  1  0  0  0  0
  1  4  1  0  0  0  0
  1  5  1  0  0  0  0
  2  6  1  0  0  0  0
  2  7  1  0  0  0  0
  2  8  1  0  0  0  0
  1  9  1  0  0  0  0
  2 10  1  0  0  0  0
  9 11  1  0  0  0  0
 10 11  1  0  0  0  0
  9 12  2  0  0  0  0
  9 13  2  0  0  0  0
 10 14  2  0  0  0  0
 10 15  2  0  0  0  0
 16 18  1  0  0  0  0
 16 19  1  0  0  0  0
 16 20  1  0  0  0  0
 17 21  1  0  0  0  0
 17 22  1  0  0  0  0
 17 23  1  0  0  0  0
 16 24  1  0  0  0  0
 17 25  1  0  0  0  0
 24 26  1  0  0  0  0
 25 26  1  0  0  0  0
 24 27  2  0  0  0  0
 24 28  2  0  0  0  0
 25 29  2  0  0  0  0
 25 30  2  0  0  0  0
 31 32  2  0  0  0  0
 31 33  1  0  0  0  0
 31 34  1  0  0  0  0
 32 35  1  0  0  0  0
 32 36  1  0  0  0  0
 35 37  4  0  0  0  0
 37 38  4  0  0  0  0
 38 39  4  0  0  0  0
 35 40  4  0  0  0  0
 39 41  4  0  0  0  0
 40 41  4  0  0  0  0
 40 42  1  0  0  0  0
 41 43  1  0  0  0  0
 38 44  1  0  0  0  0
 37 45  1  0  0  0  0
 39 46  1  0  0  0  0
 46 47  1  0  0  0  0
 46 48  1  0  0  0  0
 46 49  1  0  0  0  0
 47 50  1  0  0  0  0
 47 51  1  0  0  0  0
 51 52  1  0  0  0  0
 51 53  1  0  0  0  0
 51 54  1  0  0  0  0
 50 55  1  0  0  0  0
 52 55  1  0  0  0  0
 52 56  1  0  0  0  0
 52 57  1  0  0  0  0
 50 58  1  0  0  0  0
 50 59  1  0  0  0  0
 55 60  1  0  0  0  0
 60 61  1  0  0  0  0
 60 62  1  0  0  0  0
 60 63  1  0  0  0  0
 61 64  1  0  0  0  0
 61 65  1  0  0  0  0
 61 66  1  0  0  0  0
 64 67  1  0  0  0  0
 64 68  1  0  0  0  0
 64 69  1  0  0  0  0
 67 70  1  0  0  0  0
 67 71  1  0  0  0  0
 67 72  1  0  0  0  0
 55 73  1  0  0  0  0
 74 75  2  0  0  0  0
 74 76  1  0  0  0  0
 74 77  1  0  0  0  0
 75 78  1  0  0  0  0
 75 79  1  0  0  0  0
 78 80  4  0  0  0  0
 80 81  4  0  0  0  0
 81 82  4  0  0  0  0
 78 83  4  0  0  0  0
 82 84  4  0  0  0  0
 83 84  4  0  0  0  0
 83 85  1  0  0  0  0
 84 86  1  0  0  0  0
 81 87  1  0  0  0  0
 80 88  1  0  0  0  0
 82 89  1  0  0  0  0
 89 90  1  0  0  0  0
 89 91  1  0  0  0  0
 89 92  1  0  0  0  0
 90 93  1  0  0  0  0
 90 94  1  0  0  0  0
 94 95  1  0  0  0  0
 94 96  1  0  0  0  0
 94 97  1  0  0  0  0
 93 98  1  0  0  0  0
 95 98  1  0  0  0  0
 95 99  1  0  0  0  0
 95100  1  0  0  0  0
 93101  1  0  0  0  0
 93102  1  0  0  0  0
 98103  1  0  0  0  0
103104  1  0  0  0  0
103105  1  0  0  0  0
103106  1  0  0  0  0
104107  1  0  0  0  0
104108  1  0  0  0  0
104109  1  0  0  0  0
107110  1  0  0  0  0
107111  1  0  0  0  0
107112  1  0  0  0  0
110113  1  0  0  0  0
110114  1  0  0  0  0
110115  1  0  0  0  0
 98116  1  0  0  0  0
M  END
