 xtb: 6.7.1 (edcfbbe)
          10212513433D

116116  0     0  0            999 V2000
    4.8962    6.2809    0.0181 C   0  0  0  0  0  0  0  0  0  0  0  0
    6.7085    2.5862    2.4873 C   0  0  0  0  0  0  0  0  0  0  0  0
    5.4796    5.5137   -0.9029 F   0  0  0  0  0  0  0  0  0  0  0  0
    3.7075    6.6618   -0.4790 F   0  0  0  0  0  0  0  0  0  0  0  0
    5.6266    7.4037    0.1110 F   0  0  0  0  0  0  0  0  0  0  0  0
    7.1371    1.8315    3.4968 F   0  0  0  0  0  0  0  0  0  0  0  0
    5.4465    2.3039    2.2334 F   0  0  0  0  0  0  0  0  0  0  0  0
    7.4153    2.2181    1.4073 F   0  0  0  0  0  0  0  0  0  0  0  0
    4.6675    5.4395    1.7059 S   0  0  0  0  0  0  0  0  0  0  0  0
    7.0882    4.3974    2.8356 S   0  0  0  0  0  0  0  0  0  0  0  0
    6.2221    5.2533    1.8755 N   0  0  0  0  0  0  0  0  0  0  0  0
    4.0091    6.5482    2.3616 O   0  0  0  0  0  0  0  0  0  0  0  0
    3.8941    4.3015    1.3459 O   0  0  0  0  0  0  0  0  0  0  0  0
    8.4513    4.5224    2.3351 O   0  0  0  0  0  0  0  0  0  0  0  0
    7.0683    4.5724    4.2638 O   0  0  0  0  0  0  0  0  0  0  0  0
    5.5758    5.5087    6.2657 C   0  0  0  0  0  0  0  0  0  0  0  0
    2.2405    3.3093    3.5327 C   0  0  0  0  0  0  0  0  0  0  0  0
    4.7493    5.9279    7.2276 F   0  0  0  0  0  0  0  0  0  0  0  0
    5.8586    4.2370    6.4995 F   0  0  0  0  0  0  0  0  0  0  0  0
    6.7134    6.2070    6.4595 F   0  0  0  0  0  0  0  0  0  0  0  0
    1.8067    4.4606    3.0173 F   0  0  0  0  0  0  0  0  0  0  0  0
    2.3805    2.4218    2.5664 F   0  0  0  0  0  0  0  0  0  0  0  0
    1.2560    2.8605    4.3292 F   0  0  0  0  0  0  0  0  0  0  0  0
    4.8884    5.9622    4.5512 S   0  0  0  0  0  0  0  0  0  0  0  0
    3.7796    3.5553    4.5917 S   0  0  0  0  0  0  0  0  0  0  0  0
    4.6495    4.6129    3.7879 N   0  0  0  0  0  0  0  0  0  0  0  0
    3.6831    6.6581    4.9380 O   0  0  0  0  0  0  0  0  0  0  0  0
    5.9058    6.8324    4.0423 O   0  0  0  0  0  0  0  0  0  0  0  0
    4.3892    2.2764    4.6696 O   0  0  0  0  0  0  0  0  0  0  0  0
    3.2861    4.1419    5.7983 O   0  0  0  0  0  0  0  0  0  0  0  0
   10.8446    1.2968    0.0393 C   0  0  0  0  0  0  0  0  0  0  0  0
   11.8350    1.6382    0.8539 C   0  0  0  0  0  0  0  0  0  0  0  0
   11.0348    0.7911   -0.8924 H   0  0  0  0  0  0  0  0  0  0  0  0
    9.8159    1.5247    0.2594 H   0  0  0  0  0  0  0  0  0  0  0  0
   11.6703    2.3394    2.1229 C   0  0  0  0  0  0  0  0  0  0  0  0
   12.8605    1.4289    0.5725 H   0  0  0  0  0  0  0  0  0  0  0  0
   12.7421    3.0514    2.6626 C   0  0  0  0  0  0  0  0  0  0  0  0
   12.5992    3.7570    3.8406 C   0  0  0  0  0  0  0  0  0  0  0  0
   11.3803    3.7794    4.5134 C   0  0  0  0  0  0  0  0  0  0  0  0
   10.4707    2.3175    2.8325 C   0  0  0  0  0  0  0  0  0  0  0  0
   10.3241    3.0319    4.0047 C   0  0  0  0  0  0  0  0  0  0  0  0
    9.6513    1.7223    2.4697 H   0  0  0  0  0  0  0  0  0  0  0  0
    9.3813    3.0027    4.5300 H   0  0  0  0  0  0  0  0  0  0  0  0
   13.4507    4.2855    4.2486 H   0  0  0  0  0  0  0  0  0  0  0  0
   13.6939    3.0533    2.1495 H   0  0  0  0  0  0  0  0  0  0  0  0
   11.2067    4.5956    5.7684 C   0  0  0  0  0  0  0  0  0  0  0  0
   10.8223    5.9933    5.5774 N   0  0  0  0  0  0  0  0  0  0  0  0
   12.1433    4.6162    6.3338 H   0  0  0  0  0  0  0  0  0  0  0  0
   10.4377    4.1480    6.3996 H   0  0  0  0  0  0  0  0  0  0  0  0
    9.5154    6.2748    5.0922 C   0  0  0  0  0  0  0  0  0  0  0  0
   11.6894    6.8005    4.7528 C   0  0  0  0  0  0  0  0  0  0  0  0
   11.0701    6.7388    3.3424 C   0  0  0  0  0  0  0  0  0  0  0  0
   12.7147    6.4412    4.7770 H   0  0  0  0  0  0  0  0  0  0  0  0
   11.6676    7.8286    5.1301 H   0  0  0  0  0  0  0  0  0  0  0  0
    9.6224    6.5578    3.5960 N   0  0  0  0  0  0  0  0  0  0  0  0
   11.4542    5.8812    2.7906 H   0  0  0  0  0  0  0  0  0  0  0  0
   11.2548    7.6500    2.7809 H   0  0  0  0  0  0  0  0  0  0  0  0
    9.1454    7.1941    5.5585 H   0  0  0  0  0  0  0  0  0  0  0  0
    8.7958    5.4760    5.2630 H   0  0  0  0  0  0  0  0  0  0  0  0
    8.7586    7.6893    3.1886 C   0  0  0  0  0  0  0  0  0  0  0  0
    8.4129    7.7023    1.7006 C   0  0  0  0  0  0  0  0  0  0  0  0
    9.2411    8.6176    3.5072 H   0  0  0  0  0  0  0  0  0  0  0  0
    7.8087    7.5660    3.7133 H   0  0  0  0  0  0  0  0  0  0  0  0
    9.5401    8.0039    0.7112 C   0  0  0  0  0  0  0  0  0  0  0  0
    7.6309    8.4509    1.5691 H   0  0  0  0  0  0  0  0  0  0  0  0
    7.9622    6.7401    1.4579 H   0  0  0  0  0  0  0  0  0  0  0  0
   10.1175    9.4094    0.8571 C   0  0  0  0  0  0  0  0  0  0  0  0
    9.1164    7.9130   -0.2893 H   0  0  0  0  0  0  0  0  0  0  0  0
   10.3292    7.2552    0.7868 H   0  0  0  0  0  0  0  0  0  0  0  0
    9.3271   10.1492    0.7598 H   0  0  0  0  0  0  0  0  0  0  0  0
   10.8552    9.5956    0.0802 H   0  0  0  0  0  0  0  0  0  0  0  0
   10.6025    9.5600    1.8197 H   0  0  0  0  0  0  0  0  0  0  0  0
    9.2558    5.7183    3.0793 H   0  0  0  0  0  0  0  0  0  0  0  0
   -1.7302    6.1311    9.6799 C   0  0  0  0  0  0  0  0  0  0  0  0
   -0.7414    5.8368    8.8439 C   0  0  0  0  0  0  0  0  0  0  0  0
   -1.6818    5.8613   10.7226 H   0  0  0  0  0  0  0  0  0  0  0  0
   -2.6226    6.6486    9.3704 H   0  0  0  0  0  0  0  0  0  0  0  0
   -0.6843    6.1493    7.4206 C   0  0  0  0  0  0  0  0  0  0  0  0
    0.1358    5.3298    9.2223 H   0  0  0  0  0  0  0  0  0  0  0  0
   -1.7785    6.6449    6.7084 C   0  0  0  0  0  0  0  0  0  0  0  0
   -1.6745    6.9294    5.3619 C   0  0  0  0  0  0  0  0  0  0  0  0
   -0.4783    6.7316    4.6785 C   0  0  0  0  0  0  0  0  0  0  0  0
    0.5098    5.9417    6.7271 C   0  0  0  0  0  0  0  0  0  0  0  0
    0.6124    6.2322    5.3809 C   0  0  0  0  0  0  0  0  0  0  0  0
    1.3779    5.5398    7.2277 H   0  0  0  0  0  0  0  0  0  0  0  0
    1.5554    6.0577    4.8892 H   0  0  0  0  0  0  0  0  0  0  0  0
   -2.5404    7.2973    4.8269 H   0  0  0  0  0  0  0  0  0  0  0  0
   -2.7238    6.7956    7.2064 H   0  0  0  0  0  0  0  0  0  0  0  0
   -0.3764    7.0619    3.2118 C   0  0  0  0  0  0  0  0  0  0  0  0
    0.3181    8.3079    2.8875 N   0  0  0  0  0  0  0  0  0  0  0  0
   -1.3861    7.1577    2.7961 H   0  0  0  0  0  0  0  0  0  0  0  0
    0.1361    6.2594    2.6825 H   0  0  0  0  0  0  0  0  0  0  0  0
    1.7027    8.2772    2.5896 C   0  0  0  0  0  0  0  0  0  0  0  0
    0.1646    9.4093    3.8066 C   0  0  0  0  0  0  0  0  0  0  0  0
    1.4242    9.3631    4.6959 C   0  0  0  0  0  0  0  0  0  0  0  0
   -0.7536    9.3195    4.3829 H   0  0  0  0  0  0  0  0  0  0  0  0
    0.1380   10.3444    3.2366 H   0  0  0  0  0  0  0  0  0  0  0  0
    2.4605    8.7541    3.8318 N   0  0  0  0  0  0  0  0  0  0  0  0
    1.2574    8.7252    5.5630 H   0  0  0  0  0  0  0  0  0  0  0  0
    1.7212   10.3548    5.0245 H   0  0  0  0  0  0  0  0  0  0  0  0
    1.9190    9.0091    1.8018 H   0  0  0  0  0  0  0  0  0  0  0  0
    2.0764    7.3006    2.2864 H   0  0  0  0  0  0  0  0  0  0  0  0
    3.6061    9.6118    3.4634 C   0  0  0  0  0  0  0  0  0  0  0  0
    4.3006   10.3212    4.6263 C   0  0  0  0  0  0  0  0  0  0  0  0
    3.2513   10.3698    2.7565 H   0  0  0  0  0  0  0  0  0  0  0  0
    4.3183    8.9505    2.9634 H   0  0  0  0  0  0  0  0  0  0  0  0
    4.8589    9.3884    5.6979 C   0  0  0  0  0  0  0  0  0  0  0  0
    3.6360   11.0545    5.0907 H   0  0  0  0  0  0  0  0  0  0  0  0
    5.1284   10.8840    4.1883 H   0  0  0  0  0  0  0  0  0  0  0  0
    5.6775   10.1614    6.7267 C   0  0  0  0  0  0  0  0  0  0  0  0
    5.4789    8.6323    5.2211 H   0  0  0  0  0  0  0  0  0  0  0  0
    4.0471    8.8672    6.2049 H   0  0  0  0  0  0  0  0  0  0  0  0
    5.0664   10.9088    7.2279 H   0  0  0  0  0  0  0  0  0  0  0  0
    6.5133   10.6671    6.2499 H   0  0  0  0  0  0  0  0  0  0  0  0
    6.0703    9.4825    7.4772 H   0  0  0  0  0  0  0  0  0  0  0  0
    2.8848    7.9070    4.2844 H   0  0  0  0  0  0  0  0  0  0  0  0
  1  3  1  0  0  0  0
  1  4  1  0  0  0  0
  1  5  1  0  0  0  0
  2  6  1  0  0  0  0
  2  7  1  0  0  0  0
  2  8  1  0  0  0  0
  1  9  1  0  0  0  0
  2 10  1  0  0  0  0
  9 11  1  0  0  0  0
 10 11  1  0  0  0  0
  9 12  2  0  0  0  0
  9 13  2  0  0  0  0
 10 14  2  0  0  0  0
 10 15  2  0  0  0  0
 16 18  1  0  0  0  0
 16 19  1  0  0  0  0
 16 20  1  0  0  0  0
 17 21  1  0  0  0  0
 17 22  1  0  0  0  0
 17 23  1  0  0  0  0
 16 24  1  0  0  0  0
 17 25  1  0  0  0  0
 24 26  1  0  0  0  0
 25 26  1  0  0  0  0
 24 27  2  0  0  0  0
 24 28  2  0  0  0  0
 25 29  2  0  0  0  0
 25 30  2  0  0  0  0
 31 32  2  0  0  0  0
 31 33  1  0  0  0  0
 31 34  1  0  0  0  0
 32 35  1  0  0  0  0
 32 36  1  0  0  0  0
 35 37  4  0  0  0  0
 37 38  4  0  0  0  0
 38 39  4  0  0  0  0
 35 40  4  0  0  0  0
 39 41  4  0  0  0  0
 40 41  4  0  0  0  0
 40 42  1  0  0  0  0
 41 43  1  0  0  0  0
 38 44  1  0  0  0  0
 37 45  1  0  0  0  0
 39 46  1  0  0  0  0
 46 47  1  0  0  0  0
 46 48  1  0  0  0  0
 46 49  1  0  0  0  0
 47 50  1  0  0  0  0
 47 51  1  0  0  0  0
 51 52  1  0  0  0  0
 51 53  1  0  0  0  0
 51 54  1  0  0  0  0
 50 55  1  0  0  0  0
 52 55  1  0  0  0  0
 52 56  1  0  0  0  0
 52 57  1  0  0  0  0
 50 58  1  0  0  0  0
 50 59  1  0  0  0  0
 55 60  1  0  0  0  0
 60 61  1  0  0  0  0
 60 62  1  0  0  0  0
 60 63  1  0  0  0  0
 61 64  1  0  0  0  0
 61 65  1  0  0  0  0
 61 66  1  0  0  0  0
 64 67  1  0  0  0  0
 64 68  1  0  0  0  0
 64 69  1  0  0  0  0
 67 70  1  0  0  0  0
 67 71  1  0  0  0  0
 67 72  1  0  0  0  0
 55 73  1  0  0  0  0
 74 75  2  0  0  0  0
 74 76  1  0  0  0  0
 74 77  1  0  0  0  0
 75 78  1  0  0  0  0
 75 79  1  0  0  0  0
 78 80  4  0  0  0  0
 80 81  4  0  0  0  0
 81 82  4  0  0  0  0
 78 83  4  0  0  0  0
 82 84  4  0  0  0  0
 83 84  4  0  0  0  0
 83 85  1  0  0  0  0
 84 86  1  0  0  0  0
 81 87  1  0  0  0  0
 80 88  1  0  0  0  0
 82 89  1  0  0  0  0
 89 90  1  0  0  0  0
 89 91  1  0  0  0  0
 89 92  1  0  0  0  0
 90 93  1  0  0  0  0
 90 94  1  0  0  0  0
 94 95  1  0  0  0  0
 94 96  1  0  0  0  0
 94 97  1  0  0  0  0
 93 98  1  0  0  0  0
 95 98  1  0  0  0  0
 95 99  1  0  0  0  0
 95100  1  0  0  0  0
 93101  1  0  0  0  0
 93102  1  0  0  0  0
 98103  1  0  0  0  0
103104  1  0  0  0  0
103105  1  0  0  0  0
103106  1  0  0  0  0
104107  1  0  0  0  0
104108  1  0  0  0  0
104109  1  0  0  0  0
107110  1  0  0  0  0
107111  1  0  0  0  0
107112  1  0  0  0  0
110113  1  0  0  0  0
110114  1  0  0  0  0
110115  1  0  0  0  0
 98116  1  0  0  0  0
M  END
