 xtb: 6.7.1 (edcfbbe)
          10212513533D

116116  0     0  0            999 V2000
    4.1125    1.7426    2.5188 C   0  0  0  0  0  0  0  0  0  0  0  0
    0.5361    3.6837   -0.0253 C   0  0  0  0  0  0  0  0  0  0  0  0
    3.2834    0.8080    2.0502 F   0  0  0  0  0  0  0  0  0  0  0  0
    4.8476    2.1641    1.4906 F   0  0  0  0  0  0  0  0  0  0  0  0
    4.9144    1.1578    3.3977 F   0  0  0  0  0  0  0  0  0  0  0  0
   -0.7171    3.5325   -0.4465 F   0  0  0  0  0  0  0  0  0  0  0  0
    0.8917    4.9539   -0.2847 F   0  0  0  0  0  0  0  0  0  0  0  0
    1.3163    2.9046   -0.7715 F   0  0  0  0  0  0  0  0  0  0  0  0
    3.0676    3.1774    3.1423 S   0  0  0  0  0  0  0  0  0  0  0  0
    0.7632    3.3256    1.8165 S   0  0  0  0  0  0  0  0  0  0  0  0
    2.3371    3.5962    1.8187 N   0  0  0  0  0  0  0  0  0  0  0  0
    2.2179    2.7066    4.1766 O   0  0  0  0  0  0  0  0  0  0  0  0
    4.0155    4.2227    3.5036 O   0  0  0  0  0  0  0  0  0  0  0  0
    0.3530    1.9822    2.0080 O   0  0  0  0  0  0  0  0  0  0  0  0
    0.0555    4.3871    2.4640 O   0  0  0  0  0  0  0  0  0  0  0  0
    7.8673    7.5161    4.8753 C   0  0  0  0  0  0  0  0  0  0  0  0
    5.0481    3.9232    5.7995 C   0  0  0  0  0  0  0  0  0  0  0  0
    8.8515    8.3052    5.3402 F   0  0  0  0  0  0  0  0  0  0  0  0
    8.2648    7.0578    3.6958 F   0  0  0  0  0  0  0  0  0  0  0  0
    6.8161    8.3143    4.6969 F   0  0  0  0  0  0  0  0  0  0  0  0
    5.6874    3.8602    6.9840 F   0  0  0  0  0  0  0  0  0  0  0  0
    3.9877    4.6870    6.0088 F   0  0  0  0  0  0  0  0  0  0  0  0
    4.6691    2.6820    5.5336 F   0  0  0  0  0  0  0  0  0  0  0  0
    7.5421    6.1393    6.1421 S   0  0  0  0  0  0  0  0  0  0  0  0
    6.2517    4.5926    4.4979 S   0  0  0  0  0  0  0  0  0  0  0  0
    7.5619    4.7778    5.4075 N   0  0  0  0  0  0  0  0  0  0  0  0
    8.6767    6.2858    7.0395 O   0  0  0  0  0  0  0  0  0  0  0  0
    6.3131    6.5209    6.7838 O   0  0  0  0  0  0  0  0  0  0  0  0
    5.8328    5.9166    4.1185 O   0  0  0  0  0  0  0  0  0  0  0  0
    6.4943    3.6072    3.5089 O   0  0  0  0  0  0  0  0  0  0  0  0
   12.0153    1.5637    8.4749 C   0  0  0  0  0  0  0  0  0  0  0  0
   11.3814    1.7845    9.6200 C   0  0  0  0  0  0  0  0  0  0  0  0
   12.9475    1.0259    8.4482 H   0  0  0  0  0  0  0  0  0  0  0  0
   11.6335    1.8968    7.5257 H   0  0  0  0  0  0  0  0  0  0  0  0
   10.1132    2.4842    9.7865 C   0  0  0  0  0  0  0  0  0  0  0  0
   11.8105    1.4073   10.5407 H   0  0  0  0  0  0  0  0  0  0  0  0
    9.5017    2.4814   11.0420 C   0  0  0  0  0  0  0  0  0  0  0  0
    8.2908    3.1123   11.2459 C   0  0  0  0  0  0  0  0  0  0  0  0
    7.6522    3.7793   10.2048 C   0  0  0  0  0  0  0  0  0  0  0  0
    9.4643    3.1502    8.7453 C   0  0  0  0  0  0  0  0  0  0  0  0
    8.2553    3.7852    8.9513 C   0  0  0  0  0  0  0  0  0  0  0  0
    9.8944    3.1797    7.7579 H   0  0  0  0  0  0  0  0  0  0  0  0
    7.7755    4.2732    8.1174 H   0  0  0  0  0  0  0  0  0  0  0  0
    7.8252    3.0690   12.2214 H   0  0  0  0  0  0  0  0  0  0  0  0
    9.9772    1.9630   11.8626 H   0  0  0  0  0  0  0  0  0  0  0  0
    6.3407    4.4821   10.4419 C   0  0  0  0  0  0  0  0  0  0  0  0
    6.4353    5.9054   10.7791 N   0  0  0  0  0  0  0  0  0  0  0  0
    5.8230    4.0053   11.2806 H   0  0  0  0  0  0  0  0  0  0  0  0
    5.7103    4.3985    9.5571 H   0  0  0  0  0  0  0  0  0  0  0  0
    6.4219    6.8580    9.7352 C   0  0  0  0  0  0  0  0  0  0  0  0
    7.5440    6.3100   11.6118 C   0  0  0  0  0  0  0  0  0  0  0  0
    8.6379    6.7710   10.6220 C   0  0  0  0  0  0  0  0  0  0  0  0
    7.8802    5.4985   12.2514 H   0  0  0  0  0  0  0  0  0  0  0  0
    7.2234    7.1481   12.2389 H   0  0  0  0  0  0  0  0  0  0  0  0
    7.8799    7.2195    9.4301 N   0  0  0  0  0  0  0  0  0  0  0  0
    9.2893    5.9412   10.3505 H   0  0  0  0  0  0  0  0  0  0  0  0
    9.2350    7.5858   11.0260 H   0  0  0  0  0  0  0  0  0  0  0  0
    5.9531    7.7819   10.0963 H   0  0  0  0  0  0  0  0  0  0  0  0
    5.9253    6.5196    8.8256 H   0  0  0  0  0  0  0  0  0  0  0  0
    8.0413    8.6451    9.0874 C   0  0  0  0  0  0  0  0  0  0  0  0
    9.4497    8.9650    8.5963 C   0  0  0  0  0  0  0  0  0  0  0  0
    7.7844    9.2490    9.9637 H   0  0  0  0  0  0  0  0  0  0  0  0
    7.3314    8.8616    8.2857 H   0  0  0  0  0  0  0  0  0  0  0  0
    9.5280   10.3803    8.0235 C   0  0  0  0  0  0  0  0  0  0  0  0
    9.7174    8.2503    7.8176 H   0  0  0  0  0  0  0  0  0  0  0  0
   10.1726    8.8711    9.4088 H   0  0  0  0  0  0  0  0  0  0  0  0
   10.9196   10.6737    7.4787 C   0  0  0  0  0  0  0  0  0  0  0  0
    9.2756   11.1073    8.7991 H   0  0  0  0  0  0  0  0  0  0  0  0
    8.8010   10.4805    7.2171 H   0  0  0  0  0  0  0  0  0  0  0  0
   10.9619   11.6777    7.0658 H   0  0  0  0  0  0  0  0  0  0  0  0
   11.1668    9.9662    6.6923 H   0  0  0  0  0  0  0  0  0  0  0  0
   11.6668   10.5942    8.2647 H   0  0  0  0  0  0  0  0  0  0  0  0
    8.1928    6.6983    8.5716 H   0  0  0  0  0  0  0  0  0  0  0  0
    2.0076   11.1562    9.6023 C   0  0  0  0  0  0  0  0  0  0  0  0
    2.8983   10.4431    8.9244 C   0  0  0  0  0  0  0  0  0  0  0  0
    2.2987   11.7670   10.4394 H   0  0  0  0  0  0  0  0  0  0  0  0
    0.9605   11.1617    9.3584 H   0  0  0  0  0  0  0  0  0  0  0  0
    2.6432    9.5778    7.7800 C   0  0  0  0  0  0  0  0  0  0  0  0
    3.9377   10.4793    9.2314 H   0  0  0  0  0  0  0  0  0  0  0  0
    1.3979    9.4767    7.1574 C   0  0  0  0  0  0  0  0  0  0  0  0
    1.2106    8.6334    6.0808 C   0  0  0  0  0  0  0  0  0  0  0  0
    2.2564    7.8585    5.5920 C   0  0  0  0  0  0  0  0  0  0  0  0
    3.6892    8.8053    7.2738 C   0  0  0  0  0  0  0  0  0  0  0  0
    3.5025    7.9583    6.2011 C   0  0  0  0  0  0  0  0  0  0  0  0
    4.6676    8.8593    7.7301 H   0  0  0  0  0  0  0  0  0  0  0  0
    4.3296    7.3627    5.8465 H   0  0  0  0  0  0  0  0  0  0  0  0
    0.2411    8.5665    5.6108 H   0  0  0  0  0  0  0  0  0  0  0  0
    0.5683   10.0641    7.5185 H   0  0  0  0  0  0  0  0  0  0  0  0
    2.0710    6.9340    4.4241 C   0  0  0  0  0  0  0  0  0  0  0  0
    2.1015    7.6546    3.1399 N   0  0  0  0  0  0  0  0  0  0  0  0
    1.0915    6.4509    4.4710 H   0  0  0  0  0  0  0  0  0  0  0  0
    2.8408    6.1564    4.4706 H   0  0  0  0  0  0  0  0  0  0  0  0
    2.2163    6.7721    2.0336 C   0  0  0  0  0  0  0  0  0  0  0  0
    3.2085    8.5707    2.9489 C   0  0  0  0  0  0  0  0  0  0  0  0
    4.3499    7.7352    2.3231 C   0  0  0  0  0  0  0  0  0  0  0  0
    3.5006    9.0341    3.8879 H   0  0  0  0  0  0  0  0  0  0  0  0
    2.8809    9.3531    2.2579 H   0  0  0  0  0  0  0  0  0  0  0  0
    3.7022    6.4691    1.9101 N   0  0  0  0  0  0  0  0  0  0  0  0
    5.1244    7.5189    3.0530 H   0  0  0  0  0  0  0  0  0  0  0  0
    4.7770    8.2315    1.4526 H   0  0  0  0  0  0  0  0  0  0  0  0
    1.9215    7.2846    1.1114 H   0  0  0  0  0  0  0  0  0  0  0  0
    1.6343    5.8596    2.1566 H   0  0  0  0  0  0  0  0  0  0  0  0
    4.0919    5.9264    0.5961 C   0  0  0  0  0  0  0  0  0  0  0  0
    5.4524    5.2342    0.6144 C   0  0  0  0  0  0  0  0  0  0  0  0
    4.0642    6.7381   -0.1375 H   0  0  0  0  0  0  0  0  0  0  0  0
    3.3387    5.1798    0.3399 H   0  0  0  0  0  0  0  0  0  0  0  0
    6.6711    6.1544    0.6553 C   0  0  0  0  0  0  0  0  0  0  0  0
    5.5149    4.6136   -0.2809 H   0  0  0  0  0  0  0  0  0  0  0  0
    5.4952    4.5671    1.4749 H   0  0  0  0  0  0  0  0  0  0  0  0
    7.9482    5.3266    0.5770 C   0  0  0  0  0  0  0  0  0  0  0  0
    6.6885    6.7082    1.5916 H   0  0  0  0  0  0  0  0  0  0  0  0
    6.6369    6.8650   -0.1757 H   0  0  0  0  0  0  0  0  0  0  0  0
    7.9969    4.7792   -0.3616 H   0  0  0  0  0  0  0  0  0  0  0  0
    7.9645    4.6145    1.3976 H   0  0  0  0  0  0  0  0  0  0  0  0
    8.8235    5.9662    0.6539 H   0  0  0  0  0  0  0  0  0  0  0  0
    3.9351    5.7271    2.6041 H   0  0  0  0  0  0  0  0  0  0  0  0
  1  3  1  0  0  0  0
  1  4  1  0  0  0  0
  1  5  1  0  0  0  0
  2  6  1  0  0  0  0
  2  7  1  0  0  0  0
  2  8  1  0  0  0  0
  1  9  1  0  0  0  0
  2 10  1  0  0  0  0
  9 11  1  0  0  0  0
 10 11  1  0  0  0  0
  9 12  2  0  0  0  0
  9 13  2  0  0  0  0
 10 14  2  0  0  0  0
 10 15  2  0  0  0  0
 16 18  1  0  0  0  0
 16 19  1  0  0  0  0
 16 20  1  0  0  0  0
 17 21  1  0  0  0  0
 17 22  1  0  0  0  0
 17 23  1  0  0  0  0
 16 24  1  0  0  0  0
 17 25  1  0  0  0  0
 24 26  1  0  0  0  0
 25 26  1  0  0  0  0
 24 27  2  0  0  0  0
 24 28  2  0  0  0  0
 25 29  2  0  0  0  0
 25 30  2  0  0  0  0
 31 32  2  0  0  0  0
 31 33  1  0  0  0  0
 31 34  1  0  0  0  0
 32 35  1  0  0  0  0
 32 36  1  0  0  0  0
 35 37  4  0  0  0  0
 37 38  4  0  0  0  0
 38 39  4  0  0  0  0
 35 40  4  0  0  0  0
 39 41  4  0  0  0  0
 40 41  4  0  0  0  0
 40 42  1  0  0  0  0
 41 43  1  0  0  0  0
 38 44  1  0  0  0  0
 37 45  1  0  0  0  0
 39 46  1  0  0  0  0
 46 47  1  0  0  0  0
 46 48  1  0  0  0  0
 46 49  1  0  0  0  0
 47 50  1  0  0  0  0
 47 51  1  0  0  0  0
 51 52  1  0  0  0  0
 51 53  1  0  0  0  0
 51 54  1  0  0  0  0
 50 55  1  0  0  0  0
 52 55  1  0  0  0  0
 52 56  1  0  0  0  0
 52 57  1  0  0  0  0
 50 58  1  0  0  0  0
 50 59  1  0  0  0  0
 55 60  1  0  0  0  0
 60 61  1  0  0  0  0
 60 62  1  0  0  0  0
 60 63  1  0  0  0  0
 61 64  1  0  0  0  0
 61 65  1  0  0  0  0
 61 66  1  0  0  0  0
 64 67  1  0  0  0  0
 64 68  1  0  0  0  0
 64 69  1  0  0  0  0
 67 70  1  0  0  0  0
 67 71  1  0  0  0  0
 67 72  1  0  0  0  0
 55 73  1  0  0  0  0
 74 75  2  0  0  0  0
 74 76  1  0  0  0  0
 74 77  1  0  0  0  0
 75 78  1  0  0  0  0
 75 79  1  0  0  0  0
 78 80  4  0  0  0  0
 80 81  4  0  0  0  0
 81 82  4  0  0  0  0
 78 83  4  0  0  0  0
 82 84  4  0  0  0  0
 83 84  4  0  0  0  0
 83 85  1  0  0  0  0
 84 86  1  0  0  0  0
 81 87  1  0  0  0  0
 80 88  1  0  0  0  0
 82 89  1  0  0  0  0
 89 90  1  0  0  0  0
 89 91  1  0  0  0  0
 89 92  1  0  0  0  0
 90 93  1  0  0  0  0
 90 94  1  0  0  0  0
 94 95  1  0  0  0  0
 94 96  1  0  0  0  0
 94 97  1  0  0  0  0
 93 98  1  0  0  0  0
 95 98  1  0  0  0  0
 95 99  1  0  0  0  0
 95100  1  0  0  0  0
 93101  1  0  0  0  0
 93102  1  0  0  0  0
 98103  1  0  0  0  0
103104  1  0  0  0  0
103105  1  0  0  0  0
103106  1  0  0  0  0
104107  1  0  0  0  0
104108  1  0  0  0  0
104109  1  0  0  0  0
107110  1  0  0  0  0
107111  1  0  0  0  0
107112  1  0  0  0  0
110113  1  0  0  0  0
110114  1  0  0  0  0
110115  1  0  0  0  0
 98116  1  0  0  0  0
M  END
