 xtb: 6.7.1 (edcfbbe)
          10212513513D

116116  0     0  0            999 V2000
    1.5654    7.2072    7.0946 C   0  0  0  0  0  0  0  0  0  0  0  0
    4.9614   10.3740    6.0825 C   0  0  0  0  0  0  0  0  0  0  0  0
    1.3753    7.9135    8.2019 F   0  0  0  0  0  0  0  0  0  0  0  0
    0.7484    7.6501    6.1362 F   0  0  0  0  0  0  0  0  0  0  0  0
    1.1592    5.9524    7.3579 F   0  0  0  0  0  0  0  0  0  0  0  0
    5.1362    9.6090    5.0005 F   0  0  0  0  0  0  0  0  0  0  0  0
    4.6600   11.5990    5.6581 F   0  0  0  0  0  0  0  0  0  0  0  0
    6.1208   10.4283    6.7296 F   0  0  0  0  0  0  0  0  0  0  0  0
    3.4014    7.1476    6.5790 S   0  0  0  0  0  0  0  0  0  0  0  0
    3.6036    9.6889    7.1916 S   0  0  0  0  0  0  0  0  0  0  0  0
    4.0916    8.2063    7.4875 N   0  0  0  0  0  0  0  0  0  0  0  0
    3.7808    5.8159    6.9093 O   0  0  0  0  0  0  0  0  0  0  0  0
    3.3643    7.4443    5.1635 O   0  0  0  0  0  0  0  0  0  0  0  0
    2.4286    9.6753    6.3694 O   0  0  0  0  0  0  0  0  0  0  0  0
    3.6352   10.5011    8.3542 O   0  0  0  0  0  0  0  0  0  0  0  0
    8.9941    0.5467    7.8800 C   0  0  0  0  0  0  0  0  0  0  0  0
    7.6720    0.5070   12.0200 C   0  0  0  0  0  0  0  0  0  0  0  0
    9.3657    1.6532    7.2317 F   0  0  0  0  0  0  0  0  0  0  0  0
    9.9390    0.2622    8.7718 F   0  0  0  0  0  0  0  0  0  0  0  0
    8.9658   -0.4471    6.9865 F   0  0  0  0  0  0  0  0  0  0  0  0
    8.7937    0.0566   11.4662 F   0  0  0  0  0  0  0  0  0  0  0  0
    7.9794    0.9199   13.2570 F   0  0  0  0  0  0  0  0  0  0  0  0
    6.8153   -0.4951   12.1500 F   0  0  0  0  0  0  0  0  0  0  0  0
    7.3143    0.8119    8.6852 S   0  0  0  0  0  0  0  0  0  0  0  0
    6.9585    1.9516   11.0373 S   0  0  0  0  0  0  0  0  0  0  0  0
    7.7112    1.9939    9.6664 N   0  0  0  0  0  0  0  0  0  0  0  0
    6.4882    1.2255    7.5907 O   0  0  0  0  0  0  0  0  0  0  0  0
    6.9843   -0.3913    9.3748 O   0  0  0  0  0  0  0  0  0  0  0  0
    7.2765    3.1270   11.8085 O   0  0  0  0  0  0  0  0  0  0  0  0
    5.5469    1.6996   10.9317 O   0  0  0  0  0  0  0  0  0  0  0  0
    8.6942    9.1220    0.1414 C   0  0  0  0  0  0  0  0  0  0  0  0
    8.3661    7.8377    0.0737 C   0  0  0  0  0  0  0  0  0  0  0  0
    9.4873    9.5309   -0.4603 H   0  0  0  0  0  0  0  0  0  0  0  0
    8.1880    9.8176    0.7885 H   0  0  0  0  0  0  0  0  0  0  0  0
    7.3060    7.1783    0.8278 C   0  0  0  0  0  0  0  0  0  0  0  0
    8.8992    7.1934   -0.6141 H   0  0  0  0  0  0  0  0  0  0  0  0
    6.8826    5.9073    0.4346 C   0  0  0  0  0  0  0  0  0  0  0  0
    5.8651    5.2562    1.1028 C   0  0  0  0  0  0  0  0  0  0  0  0
    5.2472    5.8498    2.1959 C   0  0  0  0  0  0  0  0  0  0  0  0
    6.6886    7.7624    1.9347 C   0  0  0  0  0  0  0  0  0  0  0  0
    5.6743    7.1088    2.6073 C   0  0  0  0  0  0  0  0  0  0  0  0
    7.0108    8.7309    2.2831 H   0  0  0  0  0  0  0  0  0  0  0  0
    5.2143    7.5710    3.4700 H   0  0  0  0  0  0  0  0  0  0  0  0
    5.5457    4.2769    0.7796 H   0  0  0  0  0  0  0  0  0  0  0  0
    7.3573    5.4308   -0.4111 H   0  0  0  0  0  0  0  0  0  0  0  0
    4.1108    5.1637    2.8998 C   0  0  0  0  0  0  0  0  0  0  0  0
    2.8750    5.3434    2.1228 N   0  0  0  0  0  0  0  0  0  0  0  0
    4.0211    5.5416    3.9256 H   0  0  0  0  0  0  0  0  0  0  0  0
    4.2969    4.0895    2.9411 H   0  0  0  0  0  0  0  0  0  0  0  0
    2.4677    6.6888    1.9438 C   0  0  0  0  0  0  0  0  0  0  0  0
    1.7064    4.6893    2.6792 C   0  0  0  0  0  0  0  0  0  0  0  0
    0.9570    5.7708    3.5014 C   0  0  0  0  0  0  0  0  0  0  0  0
    1.9941    3.8347    3.2876 H   0  0  0  0  0  0  0  0  0  0  0  0
    1.0783    4.3360    1.8560 H   0  0  0  0  0  0  0  0  0  0  0  0
    1.6500    7.0390    3.1725 N   0  0  0  0  0  0  0  0  0  0  0  0
    1.0144    5.5762    4.5704 H   0  0  0  0  0  0  0  0  0  0  0  0
   -0.0898    5.8390    3.2046 H   0  0  0  0  0  0  0  0  0  0  0  0
    1.7954    6.7636    1.0805 H   0  0  0  0  0  0  0  0  0  0  0  0
    3.3148    7.3624    1.8262 H   0  0  0  0  0  0  0  0  0  0  0  0
    0.7804    8.2200    3.0259 C   0  0  0  0  0  0  0  0  0  0  0  0
    1.5862    9.5112    3.1316 C   0  0  0  0  0  0  0  0  0  0  0  0
    0.0431    8.2070    3.8297 H   0  0  0  0  0  0  0  0  0  0  0  0
    0.2642    8.1469    2.0644 H   0  0  0  0  0  0  0  0  0  0  0  0
    0.6964   10.7520    3.0376 C   0  0  0  0  0  0  0  0  0  0  0  0
    2.3408    9.5514    2.3441 H   0  0  0  0  0  0  0  0  0  0  0  0
    2.0884    9.5209    4.1007 H   0  0  0  0  0  0  0  0  0  0  0  0
    0.0740   10.9462    1.6586 C   0  0  0  0  0  0  0  0  0  0  0  0
    1.3091   11.6218    3.2748 H   0  0  0  0  0  0  0  0  0  0  0  0
   -0.0867   10.6899    3.7942 H   0  0  0  0  0  0  0  0  0  0  0  0
    0.8432   10.9450    0.8892 H   0  0  0  0  0  0  0  0  0  0  0  0
   -0.4453   11.8997    1.6155 H   0  0  0  0  0  0  0  0  0  0  0  0
   -0.6475   10.1655    1.4304 H   0  0  0  0  0  0  0  0  0  0  0  0
    2.3325    7.2500    3.9424 H   0  0  0  0  0  0  0  0  0  0  0  0
    6.5842    3.5872    4.9788 C   0  0  0  0  0  0  0  0  0  0  0  0
    6.7489    4.8633    5.3077 C   0  0  0  0  0  0  0  0  0  0  0  0
    6.5487    3.2867    3.9444 H   0  0  0  0  0  0  0  0  0  0  0  0
    6.4890    2.8024    5.7100 H   0  0  0  0  0  0  0  0  0  0  0  0
    6.8334    5.3806    6.6667 C   0  0  0  0  0  0  0  0  0  0  0  0
    6.8265    5.6127    4.5285 H   0  0  0  0  0  0  0  0  0  0  0  0
    6.7631    6.7554    6.8962 C   0  0  0  0  0  0  0  0  0  0  0  0
    6.8428    7.2732    8.1760 C   0  0  0  0  0  0  0  0  0  0  0  0
    7.0139    6.4298    9.2672 C   0  0  0  0  0  0  0  0  0  0  0  0
    7.0204    4.5394    7.7639 C   0  0  0  0  0  0  0  0  0  0  0  0
    7.1161    5.0564    9.0411 C   0  0  0  0  0  0  0  0  0  0  0  0
    7.1144    3.4743    7.6355 H   0  0  0  0  0  0  0  0  0  0  0  0
    7.3354    4.3764    9.8528 H   0  0  0  0  0  0  0  0  0  0  0  0
    6.7867    8.3420    8.3227 H   0  0  0  0  0  0  0  0  0  0  0  0
    6.6457    7.4267    6.0570 H   0  0  0  0  0  0  0  0  0  0  0  0
    7.0695    6.9596   10.6787 C   0  0  0  0  0  0  0  0  0  0  0  0
    5.8165    6.8579   11.4280 N   0  0  0  0  0  0  0  0  0  0  0  0
    7.3419    8.0174   10.6754 H   0  0  0  0  0  0  0  0  0  0  0  0
    7.8179    6.4080   11.2515 H   0  0  0  0  0  0  0  0  0  0  0  0
    5.3611    5.5483   11.7276 C   0  0  0  0  0  0  0  0  0  0  0  0
    4.6662    7.5054   10.8241 C   0  0  0  0  0  0  0  0  0  0  0  0
    3.8925    6.3886   10.0829 C   0  0  0  0  0  0  0  0  0  0  0  0
    4.9569    8.3016   10.1422 H   0  0  0  0  0  0  0  0  0  0  0  0
    4.0511    7.9345   11.6200 H   0  0  0  0  0  0  0  0  0  0  0  0
    4.5226    5.1238   10.5303 N   0  0  0  0  0  0  0  0  0  0  0  0
    3.9867    6.4998    9.0061 H   0  0  0  0  0  0  0  0  0  0  0  0
    2.8399    6.3872   10.3636 H   0  0  0  0  0  0  0  0  0  0  0  0
    4.6785    5.5837   12.5847 H   0  0  0  0  0  0  0  0  0  0  0  0
    6.1621    4.8291   11.9161 H   0  0  0  0  0  0  0  0  0  0  0  0
    3.5879    4.0152   10.7901 C   0  0  0  0  0  0  0  0  0  0  0  0
    2.8574    3.5676    9.5274 C   0  0  0  0  0  0  0  0  0  0  0  0
    2.8789    4.3438   11.5554 H   0  0  0  0  0  0  0  0  0  0  0  0
    4.1709    3.1695   11.1672 H   0  0  0  0  0  0  0  0  0  0  0  0
    3.8115    3.0148    8.4687 C   0  0  0  0  0  0  0  0  0  0  0  0
    2.2746    4.3850    9.0989 H   0  0  0  0  0  0  0  0  0  0  0  0
    2.1633    2.7790    9.8228 H   0  0  0  0  0  0  0  0  0  0  0  0
    3.0539    2.3354    7.3354 C   0  0  0  0  0  0  0  0  0  0  0  0
    4.4898    2.2953    8.9281 H   0  0  0  0  0  0  0  0  0  0  0  0
    4.3973    3.8244    8.0310 H   0  0  0  0  0  0  0  0  0  0  0  0
    2.4229    1.5355    7.7158 H   0  0  0  0  0  0  0  0  0  0  0  0
    3.7670    1.9090    6.6369 H   0  0  0  0  0  0  0  0  0  0  0  0
    2.4318    3.0606    6.8135 H   0  0  0  0  0  0  0  0  0  0  0  0
    5.1931    4.8129    9.8055 H   0  0  0  0  0  0  0  0  0  0  0  0
  1  3  1  0  0  0  0
  1  4  1  0  0  0  0
  1  5  1  0  0  0  0
  2  6  1  0  0  0  0
  2  7  1  0  0  0  0
  2  8  1  0  0  0  0
  1  9  1  0  0  0  0
  2 10  1  0  0  0  0
  9 11  1  0  0  0  0
 10 11  1  0  0  0  0
  9 12  2  0  0  0  0
  9 13  2  0  0  0  0
 10 14  2  0  0  0  0
 10 15  2  0  0  0  0
 16 18  1  0  0  0  0
 16 19  1  0  0  0  0
 16 20  1  0  0  0  0
 17 21  1  0  0  0  0
 17 22  1  0  0  0  0
 17 23  1  0  0  0  0
 16 24  1  0  0  0  0
 17 25  1  0  0  0  0
 24 26  1  0  0  0  0
 25 26  1  0  0  0  0
 24 27  2  0  0  0  0
 24 28  2  0  0  0  0
 25 29  2  0  0  0  0
 25 30  2  0  0  0  0
 31 32  2  0  0  0  0
 31 33  1  0  0  0  0
 31 34  1  0  0  0  0
 32 35  1  0  0  0  0
 32 36  1  0  0  0  0
 35 37  4  0  0  0  0
 37 38  4  0  0  0  0
 38 39  4  0  0  0  0
 35 40  4  0  0  0  0
 39 41  4  0  0  0  0
 40 41  4  0  0  0  0
 40 42  1  0  0  0  0
 41 43  1  0  0  0  0
 38 44  1  0  0  0  0
 37 45  1  0  0  0  0
 39 46  1  0  0  0  0
 46 47  1  0  0  0  0
 46 48  1  0  0  0  0
 46 49  1  0  0  0  0
 47 50  1  0  0  0  0
 47 51  1  0  0  0  0
 51 52  1  0  0  0  0
 51 53  1  0  0  0  0
 51 54  1  0  0  0  0
 50 55  1  0  0  0  0
 52 55  1  0  0  0  0
 52 56  1  0  0  0  0
 52 57  1  0  0  0  0
 50 58  1  0  0  0  0
 50 59  1  0  0  0  0
 55 60  1  0  0  0  0
 60 61  1  0  0  0  0
 60 62  1  0  0  0  0
 60 63  1  0  0  0  0
 61 64  1  0  0  0  0
 61 65  1  0  0  0  0
 61 66  1  0  0  0  0
 64 67  1  0  0  0  0
 64 68  1  0  0  0  0
 64 69  1  0  0  0  0
 67 70  1  0  0  0  0
 67 71  1  0  0  0  0
 67 72  1  0  0  0  0
 55 73  1  0  0  0  0
 74 75  2  0  0  0  0
 74 76  1  0  0  0  0
 74 77  1  0  0  0  0
 75 78  1  0  0  0  0
 75 79  1  0  0  0  0
 78 80  4  0  0  0  0
 80 81  4  0  0  0  0
 81 82  4  0  0  0  0
 78 83  4  0  0  0  0
 82 84  4  0  0  0  0
 83 84  4  0  0  0  0
 83 85  1  0  0  0  0
 84 86  1  0  0  0  0
 81 87  1  0  0  0  0
 80 88  1  0  0  0  0
 82 89  1  0  0  0  0
 89 90  1  0  0  0  0
 89 91  1  0  0  0  0
 89 92  1  0  0  0  0
 90 93  1  0  0  0  0
 90 94  1  0  0  0  0
 94 95  1  0  0  0  0
 94 96  1  0  0  0  0
 94 97  1  0  0  0  0
 93 98  1  0  0  0  0
 95 98  1  0  0  0  0
 95 99  1  0  0  0  0
 95100  1  0  0  0  0
 93101  1  0  0  0  0
 93102  1  0  0  0  0
 98103  1  0  0  0  0
103104  1  0  0  0  0
103105  1  0  0  0  0
103106  1  0  0  0  0
104107  1  0  0  0  0
104108  1  0  0  0  0
104109  1  0  0  0  0
107110  1  0  0  0  0
107111  1  0  0  0  0
107112  1  0  0  0  0
110113  1  0  0  0  0
110114  1  0  0  0  0
110115  1  0  0  0  0
 98116  1  0  0  0  0
M  END
