 xtb: 6.7.1 (edcfbbe)
          10212513413D

116116  0     0  0            999 V2000
    7.5120    4.3567    5.2179 C   0  0  0  0  0  0  0  0  0  0  0  0
    6.3852    4.2186    9.5949 C   0  0  0  0  0  0  0  0  0  0  0  0
    6.3436    4.3663    4.5778 F   0  0  0  0  0  0  0  0  0  0  0  0
    8.4495    4.1431    4.2748 F   0  0  0  0  0  0  0  0  0  0  0  0
    7.5293    3.2799    6.0047 F   0  0  0  0  0  0  0  0  0  0  0  0
    5.2040    4.1091   10.2371 F   0  0  0  0  0  0  0  0  0  0  0  0
    6.7444    2.9927    9.2376 F   0  0  0  0  0  0  0  0  0  0  0  0
    7.2625    4.6702   10.4837 F   0  0  0  0  0  0  0  0  0  0  0  0
    7.8582    5.9587    6.2370 S   0  0  0  0  0  0  0  0  0  0  0  0
    6.2237    5.3827    8.1188 S   0  0  0  0  0  0  0  0  0  0  0  0
    7.7154    5.3083    7.6485 N   0  0  0  0  0  0  0  0  0  0  0  0
    9.1561    6.3144    5.7701 O   0  0  0  0  0  0  0  0  0  0  0  0
    6.7667    6.8167    5.8125 O   0  0  0  0  0  0  0  0  0  0  0  0
    5.7348    6.5942    8.7117 O   0  0  0  0  0  0  0  0  0  0  0  0
    5.2988    4.7323    7.2405 O   0  0  0  0  0  0  0  0  0  0  0  0
    8.6639   10.3166    7.8832 C   0  0  0  0  0  0  0  0  0  0  0  0
    4.6758   10.4237    5.7602 C   0  0  0  0  0  0  0  0  0  0  0  0
    9.3810   10.2762    9.0044 F   0  0  0  0  0  0  0  0  0  0  0  0
    9.5175   10.2554    6.8538 F   0  0  0  0  0  0  0  0  0  0  0  0
    8.0834   11.5208    7.8257 F   0  0  0  0  0  0  0  0  0  0  0  0
    5.3946   11.5119    5.4446 F   0  0  0  0  0  0  0  0  0  0  0  0
    3.6010   10.4227    4.9428 F   0  0  0  0  0  0  0  0  0  0  0  0
    4.1902   10.6376    6.9935 F   0  0  0  0  0  0  0  0  0  0  0  0
    7.3773    8.9416    7.7248 S   0  0  0  0  0  0  0  0  0  0  0  0
    5.6522    8.7537    5.6818 S   0  0  0  0  0  0  0  0  0  0  0  0
    6.9909    9.3308    6.2474 N   0  0  0  0  0  0  0  0  0  0  0  0
    8.1370    7.7405    7.8392 O   0  0  0  0  0  0  0  0  0  0  0  0
    6.3672    9.2602    8.6774 O   0  0  0  0  0  0  0  0  0  0  0  0
    5.7069    8.6101    4.2483 O   0  0  0  0  0  0  0  0  0  0  0  0
    4.7201    8.0101    6.4684 O   0  0  0  0  0  0  0  0  0  0  0  0
    2.4594   -0.3557    3.6529 C   0  0  0  0  0  0  0  0  0  0  0  0
    1.5614    0.4894    4.1458 C   0  0  0  0  0  0  0  0  0  0  0  0
    2.2019   -1.3747    3.4191 H   0  0  0  0  0  0  0  0  0  0  0  0
    3.4816   -0.0736    3.4699 H   0  0  0  0  0  0  0  0  0  0  0  0
    1.7918    1.8820    4.5111 C   0  0  0  0  0  0  0  0  0  0  0  0
    0.5527    0.1356    4.3266 H   0  0  0  0  0  0  0  0  0  0  0  0
    2.9556    2.5728    4.1716 C   0  0  0  0  0  0  0  0  0  0  0  0
    3.1481    3.8778    4.5752 C   0  0  0  0  0  0  0  0  0  0  0  0
    2.1886    4.5387    5.3321 C   0  0  0  0  0  0  0  0  0  0  0  0
    0.8148    2.5673    5.2355 C   0  0  0  0  0  0  0  0  0  0  0  0
    1.0079    3.8740    5.6393 C   0  0  0  0  0  0  0  0  0  0  0  0
   -0.1039    2.0589    5.4945 H   0  0  0  0  0  0  0  0  0  0  0  0
    0.2425    4.3873    6.2014 H   0  0  0  0  0  0  0  0  0  0  0  0
    4.0592    4.3909    4.3180 H   0  0  0  0  0  0  0  0  0  0  0  0
    3.7222    2.0872    3.5888 H   0  0  0  0  0  0  0  0  0  0  0  0
    2.4484    5.9486    5.7862 C   0  0  0  0  0  0  0  0  0  0  0  0
    1.8371    6.2142    7.0883 N   0  0  0  0  0  0  0  0  0  0  0  0
    1.9902    6.6466    5.0756 H   0  0  0  0  0  0  0  0  0  0  0  0
    3.5314    6.1287    5.8020 H   0  0  0  0  0  0  0  0  0  0  0  0
    2.0632    7.5469    7.5774 C   0  0  0  0  0  0  0  0  0  0  0  0
    2.3034    5.2966    8.1390 C   0  0  0  0  0  0  0  0  0  0  0  0
    2.7628    6.1913    9.2929 C   0  0  0  0  0  0  0  0  0  0  0  0
    3.1341    4.6923    7.7669 H   0  0  0  0  0  0  0  0  0  0  0  0
    1.4893    4.6343    8.4435 H   0  0  0  0  0  0  0  0  0  0  0  0
    3.1349    7.4368    8.6068 N   0  0  0  0  0  0  0  0  0  0  0  0
    3.6081    5.7829    9.8378 H   0  0  0  0  0  0  0  0  0  0  0  0
    1.9365    6.4008    9.9752 H   0  0  0  0  0  0  0  0  0  0  0  0
    1.1571    7.9134    8.0782 H   0  0  0  0  0  0  0  0  0  0  0  0
    2.3636    8.2336    6.7869 H   0  0  0  0  0  0  0  0  0  0  0  0
    3.3882    8.6181    9.4542 C   0  0  0  0  0  0  0  0  0  0  0  0
    2.2967    8.9394   10.4707 C   0  0  0  0  0  0  0  0  0  0  0  0
    3.5282    9.4662    8.7861 H   0  0  0  0  0  0  0  0  0  0  0  0
    4.3478    8.4557    9.9482 H   0  0  0  0  0  0  0  0  0  0  0  0
    2.5474   10.3234   11.0732 C   0  0  0  0  0  0  0  0  0  0  0  0
    2.2886    8.2044   11.2773 H   0  0  0  0  0  0  0  0  0  0  0  0
    1.3124    8.9408    9.9974 H   0  0  0  0  0  0  0  0  0  0  0  0
    1.5012   10.6797   12.1222 C   0  0  0  0  0  0  0  0  0  0  0  0
    2.5336   11.0682   10.2763 H   0  0  0  0  0  0  0  0  0  0  0  0
    3.5406   10.3404   11.5220 H   0  0  0  0  0  0  0  0  0  0  0  0
    1.5090    9.9569   12.9349 H   0  0  0  0  0  0  0  0  0  0  0  0
    0.5053   10.6920   11.6841 H   0  0  0  0  0  0  0  0  0  0  0  0
    1.7025   11.6631   12.5382 H   0  0  0  0  0  0  0  0  0  0  0  0
    4.0388    7.2783    8.1111 H   0  0  0  0  0  0  0  0  0  0  0  0
    2.7610    6.9171    0.7759 C   0  0  0  0  0  0  0  0  0  0  0  0
    3.8293    6.4538    0.1387 C   0  0  0  0  0  0  0  0  0  0  0  0
    1.7926    6.9391    0.3059 H   0  0  0  0  0  0  0  0  0  0  0  0
    2.8111    7.2988    1.7811 H   0  0  0  0  0  0  0  0  0  0  0  0
    5.1826    6.3967    0.6808 C   0  0  0  0  0  0  0  0  0  0  0  0
    3.7306    6.1067   -0.8829 H   0  0  0  0  0  0  0  0  0  0  0  0
    6.2633    6.2100   -0.1841 C   0  0  0  0  0  0  0  0  0  0  0  0
    7.5620    6.2000    0.2891 C   0  0  0  0  0  0  0  0  0  0  0  0
    7.8255    6.3680    1.6458 C   0  0  0  0  0  0  0  0  0  0  0  0
    5.4511    6.5211    2.0442 C   0  0  0  0  0  0  0  0  0  0  0  0
    6.7487    6.5070    2.5154 C   0  0  0  0  0  0  0  0  0  0  0  0
    4.6515    6.6312    2.7570 H   0  0  0  0  0  0  0  0  0  0  0  0
    6.9160    6.6071    3.5755 H   0  0  0  0  0  0  0  0  0  0  0  0
    8.3795    6.0508   -0.4034 H   0  0  0  0  0  0  0  0  0  0  0  0
    6.0797    6.0806   -1.2418 H   0  0  0  0  0  0  0  0  0  0  0  0
    9.2371    6.4488    2.1686 C   0  0  0  0  0  0  0  0  0  0  0  0
    9.7235    7.8062    2.4073 N   0  0  0  0  0  0  0  0  0  0  0  0
    9.9280    5.9966    1.4518 H   0  0  0  0  0  0  0  0  0  0  0  0
    9.3304    5.9199    3.1157 H   0  0  0  0  0  0  0  0  0  0  0  0
    9.1987    8.5266    3.5102 C   0  0  0  0  0  0  0  0  0  0  0  0
    9.6095    8.7176    1.2952 C   0  0  0  0  0  0  0  0  0  0  0  0
    8.2571    9.4278    1.5053 C   0  0  0  0  0  0  0  0  0  0  0  0
    9.6589    8.1918    0.3446 H   0  0  0  0  0  0  0  0  0  0  0  0
   10.4304    9.4397    1.3448 H   0  0  0  0  0  0  0  0  0  0  0  0
    8.0549    9.4068    2.9747 N   0  0  0  0  0  0  0  0  0  0  0  0
    7.4553    8.8782    1.0142 H   0  0  0  0  0  0  0  0  0  0  0  0
    8.2820   10.4488    1.1359 H   0  0  0  0  0  0  0  0  0  0  0  0
    9.9622    9.2166    3.8863 H   0  0  0  0  0  0  0  0  0  0  0  0
    8.8703    7.8904    4.3314 H   0  0  0  0  0  0  0  0  0  0  0  0
    8.0394   10.7386    3.6234 C   0  0  0  0  0  0  0  0  0  0  0  0
    7.1579   11.7861    2.9334 C   0  0  0  0  0  0  0  0  0  0  0  0
    9.0658   11.1146    3.6589 H   0  0  0  0  0  0  0  0  0  0  0  0
    7.6935   10.5685    4.6457 H   0  0  0  0  0  0  0  0  0  0  0  0
    5.8049   11.2795    2.4246 C   0  0  0  0  0  0  0  0  0  0  0  0
    7.6973   12.2626    2.1103 H   0  0  0  0  0  0  0  0  0  0  0  0
    6.9768   12.5607    3.6789 H   0  0  0  0  0  0  0  0  0  0  0  0
    4.8115   12.4293    2.2966 C   0  0  0  0  0  0  0  0  0  0  0  0
    5.4092   10.5303    3.1072 H   0  0  0  0  0  0  0  0  0  0  0  0
    5.9161   10.8052    1.4475 H   0  0  0  0  0  0  0  0  0  0  0  0
    5.1846   13.1868    1.6100 H   0  0  0  0  0  0  0  0  0  0  0  0
    4.6451   12.8943    3.2642 H   0  0  0  0  0  0  0  0  0  0  0  0
    3.8588   12.0642    1.9246 H   0  0  0  0  0  0  0  0  0  0  0  0
    7.1538    8.9571    3.2422 H   0  0  0  0  0  0  0  0  0  0  0  0
  1  3  1  0  0  0  0
  1  4  1  0  0  0  0
  1  5  1  0  0  0  0
  2  6  1  0  0  0  0
  2  7  1  0  0  0  0
  2  8  1  0  0  0  0
  1  9  1  0  0  0  0
  2 10  1  0  0  0  0
  9 11  1  0  0  0  0
 10 11  1  0  0  0  0
  9 12  2  0  0  0  0
  9 13  2  0  0  0  0
 10 14  2  0  0  0  0
 10 15  2  0  0  0  0
 16 18  1  0  0  0  0
 16 19  1  0  0  0  0
 16 20  1  0  0  0  0
 17 21  1  0  0  0  0
 17 22  1  0  0  0  0
 17 23  1  0  0  0  0
 16 24  1  0  0  0  0
 17 25  1  0  0  0  0
 24 26  1  0  0  0  0
 25 26  1  0  0  0  0
 24 27  2  0  0  0  0
 24 28  2  0  0  0  0
 25 29  2  0  0  0  0
 25 30  2  0  0  0  0
 31 32  2  0  0  0  0
 31 33  1  0  0  0  0
 31 34  1  0  0  0  0
 32 35  1  0  0  0  0
 32 36  1  0  0  0  0
 35 37  4  0  0  0  0
 37 38  4  0  0  0  0
 38 39  4  0  0  0  0
 35 40  4  0  0  0  0
 39 41  4  0  0  0  0
 40 41  4  0  0  0  0
 40 42  1  0  0  0  0
 41 43  1  0  0  0  0
 38 44  1  0  0  0  0
 37 45  1  0  0  0  0
 39 46  1  0  0  0  0
 46 47  1  0  0  0  0
 46 48  1  0  0  0  0
 46 49  1  0  0  0  0
 47 50  1  0  0  0  0
 47 51  1  0  0  0  0
 51 52  1  0  0  0  0
 51 53  1  0  0  0  0
 51 54  1  0  0  0  0
 50 55  1  0  0  0  0
 52 55  1  0  0  0  0
 52 56  1  0  0  0  0
 52 57  1  0  0  0  0
 50 58  1  0  0  0  0
 50 59  1  0  0  0  0
 55 60  1  0  0  0  0
 60 61  1  0  0  0  0
 60 62  1  0  0  0  0
 60 63  1  0  0  0  0
 61 64  1  0  0  0  0
 61 65  1  0  0  0  0
 61 66  1  0  0  0  0
 64 67  1  0  0  0  0
 64 68  1  0  0  0  0
 64 69  1  0  0  0  0
 67 70  1  0  0  0  0
 67 71  1  0  0  0  0
 67 72  1  0  0  0  0
 55 73  1  0  0  0  0
 74 75  2  0  0  0  0
 74 76  1  0  0  0  0
 74 77  1  0  0  0  0
 75 78  1  0  0  0  0
 75 79  1  0  0  0  0
 78 80  4  0  0  0  0
 80 81  4  0  0  0  0
 81 82  4  0  0  0  0
 78 83  4  0  0  0  0
 82 84  4  0  0  0  0
 83 84  4  0  0  0  0
 83 85  1  0  0  0  0
 84 86  1  0  0  0  0
 81 87  1  0  0  0  0
 80 88  1  0  0  0  0
 82 89  1  0  0  0  0
 89 90  1  0  0  0  0
 89 91  1  0  0  0  0
 89 92  1  0  0  0  0
 90 93  1  0  0  0  0
 90 94  1  0  0  0  0
 94 95  1  0  0  0  0
 94 96  1  0  0  0  0
 94 97  1  0  0  0  0
 93 98  1  0  0  0  0
 95 98  1  0  0  0  0
 95 99  1  0  0  0  0
 95100  1  0  0  0  0
 93101  1  0  0  0  0
 93102  1  0  0  0  0
 98103  1  0  0  0  0
103104  1  0  0  0  0
103105  1  0  0  0  0
103106  1  0  0  0  0
104107  1  0  0  0  0
104108  1  0  0  0  0
104109  1  0  0  0  0
107110  1  0  0  0  0
107111  1  0  0  0  0
107112  1  0  0  0  0
110113  1  0  0  0  0
110114  1  0  0  0  0
110115  1  0  0  0  0
 98116  1  0  0  0  0
M  END
