 xtb: 6.7.1 (edcfbbe)
          10212513383D

116116  0     0  0            999 V2000
    4.2101    5.1492    1.0934 C   0  0  0  0  0  0  0  0  0  0  0  0
    0.2587    4.3719    2.6213 C   0  0  0  0  0  0  0  0  0  0  0  0
    4.5865    6.3346    1.5855 F   0  0  0  0  0  0  0  0  0  0  0  0
    5.0303    4.8752    0.0794 F   0  0  0  0  0  0  0  0  0  0  0  0
    2.9811    5.2780    0.6025 F   0  0  0  0  0  0  0  0  0  0  0  0
    0.3035    4.8717    1.3938 F   0  0  0  0  0  0  0  0  0  0  0  0
   -0.2340    3.1395    2.5569 F   0  0  0  0  0  0  0  0  0  0  0  0
   -0.5868    5.1137    3.3407 F   0  0  0  0  0  0  0  0  0  0  0  0
    4.2703    3.7720    2.3968 S   0  0  0  0  0  0  0  0  0  0  0  0
    1.9316    4.3631    3.4632 S   0  0  0  0  0  0  0  0  0  0  0  0
    2.7605    3.3656    2.5748 N   0  0  0  0  0  0  0  0  0  0  0  0
    5.0529    2.7342    1.8247 O   0  0  0  0  0  0  0  0  0  0  0  0
    4.8169    4.4065    3.5762 O   0  0  0  0  0  0  0  0  0  0  0  0
    1.6216    3.8196    4.7667 O   0  0  0  0  0  0  0  0  0  0  0  0
    2.4206    5.7077    3.4510 O   0  0  0  0  0  0  0  0  0  0  0  0
    6.5501    6.2176   10.7000 C   0  0  0  0  0  0  0  0  0  0  0  0
    9.7159    8.3701    8.6530 C   0  0  0  0  0  0  0  0  0  0  0  0
    6.6466    7.5178   10.4166 F   0  0  0  0  0  0  0  0  0  0  0  0
    5.2339    5.9364   10.7415 F   0  0  0  0  0  0  0  0  0  0  0  0
    7.0259    5.9892   11.9075 F   0  0  0  0  0  0  0  0  0  0  0  0
   10.5160    9.1135    9.4061 F   0  0  0  0  0  0  0  0  0  0  0  0
   10.2195    8.3667    7.4090 F   0  0  0  0  0  0  0  0  0  0  0  0
    8.5329    8.9958    8.5656 F   0  0  0  0  0  0  0  0  0  0  0  0
    7.3316    5.1965    9.3067 S   0  0  0  0  0  0  0  0  0  0  0  0
    9.5241    6.5924    9.2809 S   0  0  0  0  0  0  0  0  0  0  0  0
    8.1845    6.2381    8.4844 N   0  0  0  0  0  0  0  0  0  0  0  0
    8.0621    4.1359    9.9080 O   0  0  0  0  0  0  0  0  0  0  0  0
    6.1866    4.8113    8.5104 O   0  0  0  0  0  0  0  0  0  0  0  0
    9.3001    6.6987   10.6807 O   0  0  0  0  0  0  0  0  0  0  0  0
   10.6849    5.9439    8.7765 O   0  0  0  0  0  0  0  0  0  0  0  0
   -0.5287   11.3203   10.4404 C   0  0  0  0  0  0  0  0  0  0  0  0
    0.5902   11.0939    9.7625 C   0  0  0  0  0  0  0  0  0  0  0  0
   -0.6546   12.2123   11.0296 H   0  0  0  0  0  0  0  0  0  0  0  0
   -1.3571   10.6335   10.4468 H   0  0  0  0  0  0  0  0  0  0  0  0
    0.8926    9.9302    8.9383 C   0  0  0  0  0  0  0  0  0  0  0  0
    1.3890   11.8241    9.8138 H   0  0  0  0  0  0  0  0  0  0  0  0
    2.1729    9.8001    8.3937 C   0  0  0  0  0  0  0  0  0  0  0  0
    2.5162    8.7105    7.6206 C   0  0  0  0  0  0  0  0  0  0  0  0
    1.5859    7.7093    7.3642 C   0  0  0  0  0  0  0  0  0  0  0  0
   -0.0380    8.9290    8.6615 C   0  0  0  0  0  0  0  0  0  0  0  0
    0.3075    7.8352    7.8911 C   0  0  0  0  0  0  0  0  0  0  0  0
   -1.0407    9.0019    9.0526 H   0  0  0  0  0  0  0  0  0  0  0  0
   -0.4303    7.0701    7.6927 H   0  0  0  0  0  0  0  0  0  0  0  0
    3.5098    8.6248    7.2091 H   0  0  0  0  0  0  0  0  0  0  0  0
    2.9089   10.5668    8.5896 H   0  0  0  0  0  0  0  0  0  0  0  0
    1.9961    6.4964    6.5740 C   0  0  0  0  0  0  0  0  0  0  0  0
    3.1238    5.8711    7.2601 N   0  0  0  0  0  0  0  0  0  0  0  0
    2.3282    6.7918    5.5772 H   0  0  0  0  0  0  0  0  0  0  0  0
    1.1447    5.8149    6.4448 H   0  0  0  0  0  0  0  0  0  0  0  0
    3.8606    4.8759    6.5723 C   0  0  0  0  0  0  0  0  0  0  0  0
    2.7691    5.2193    8.5016 C   0  0  0  0  0  0  0  0  0  0  0  0
    2.3368    3.8049    8.0646 C   0  0  0  0  0  0  0  0  0  0  0  0
    1.9887    5.7642    9.0269 H   0  0  0  0  0  0  0  0  0  0  0  0
    3.6612    5.1626    9.1267 H   0  0  0  0  0  0  0  0  0  0  0  0
    3.2106    3.5193    6.9012 N   0  0  0  0  0  0  0  0  0  0  0  0
    1.2958    3.8009    7.7404 H   0  0  0  0  0  0  0  0  0  0  0  0
    2.4799    3.0677    8.8509 H   0  0  0  0  0  0  0  0  0  0  0  0
    4.8629    4.8145    7.0073 H   0  0  0  0  0  0  0  0  0  0  0  0
    3.8881    5.0257    5.4930 H   0  0  0  0  0  0  0  0  0  0  0  0
    4.2185    2.4714    7.1590 C   0  0  0  0  0  0  0  0  0  0  0  0
    4.9598    2.0340    5.8920 C   0  0  0  0  0  0  0  0  0  0  0  0
    3.7118    1.6075    7.5953 H   0  0  0  0  0  0  0  0  0  0  0  0
    4.9195    2.8787    7.8942 H   0  0  0  0  0  0  0  0  0  0  0  0
    4.4344    0.7201    5.3073 C   0  0  0  0  0  0  0  0  0  0  0  0
    6.0150    1.9062    6.1359 H   0  0  0  0  0  0  0  0  0  0  0  0
    4.8940    2.8093    5.1292 H   0  0  0  0  0  0  0  0  0  0  0  0
    2.9783    0.7909    4.8600 C   0  0  0  0  0  0  0  0  0  0  0  0
    4.5537   -0.0770    6.0459 H   0  0  0  0  0  0  0  0  0  0  0  0
    5.0491    0.4680    4.4423 H   0  0  0  0  0  0  0  0  0  0  0  0
    2.6889   -0.1512    4.4014 H   0  0  0  0  0  0  0  0  0  0  0  0
    2.8415    1.5780    4.1226 H   0  0  0  0  0  0  0  0  0  0  0  0
    2.3068    0.9691    5.6974 H   0  0  0  0  0  0  0  0  0  0  0  0
    2.6299    3.2825    6.0737 H   0  0  0  0  0  0  0  0  0  0  0  0
   10.6842    9.8505    0.6820 C   0  0  0  0  0  0  0  0  0  0  0  0
   10.6350    9.7744    2.0063 C   0  0  0  0  0  0  0  0  0  0  0  0
   11.6161    9.7545    0.1526 H   0  0  0  0  0  0  0  0  0  0  0  0
    9.8113   10.0065    0.0720 H   0  0  0  0  0  0  0  0  0  0  0  0
    9.4419    9.8791    2.8370 C   0  0  0  0  0  0  0  0  0  0  0  0
   11.5506    9.6034    2.5587 H   0  0  0  0  0  0  0  0  0  0  0  0
    8.1879   10.2307    2.3333 C   0  0  0  0  0  0  0  0  0  0  0  0
    7.0806   10.2892    3.1569 C   0  0  0  0  0  0  0  0  0  0  0  0
    7.1823    9.9937    4.5127 C   0  0  0  0  0  0  0  0  0  0  0  0
    9.5484    9.6304    4.2075 C   0  0  0  0  0  0  0  0  0  0  0  0
    8.4378    9.6838    5.0282 C   0  0  0  0  0  0  0  0  0  0  0  0
   10.5118    9.3956    4.6362 H   0  0  0  0  0  0  0  0  0  0  0  0
    8.5488    9.5220    6.0892 H   0  0  0  0  0  0  0  0  0  0  0  0
    6.1256   10.5760    2.7408 H   0  0  0  0  0  0  0  0  0  0  0  0
    8.0759   10.4688    1.2876 H   0  0  0  0  0  0  0  0  0  0  0  0
    5.9633    9.9312    5.3964 C   0  0  0  0  0  0  0  0  0  0  0  0
    5.3790    8.5934    5.5124 N   0  0  0  0  0  0  0  0  0  0  0  0
    5.1768   10.5787    5.0019 H   0  0  0  0  0  0  0  0  0  0  0  0
    6.2067   10.2640    6.4072 H   0  0  0  0  0  0  0  0  0  0  0  0
    6.1227    7.6237    6.2327 C   0  0  0  0  0  0  0  0  0  0  0  0
    5.0851    7.9385    4.2519 C   0  0  0  0  0  0  0  0  0  0  0  0
    6.3371    7.0953    3.9211 C   0  0  0  0  0  0  0  0  0  0  0  0
    4.8581    8.6612    3.4735 H   0  0  0  0  0  0  0  0  0  0  0  0
    4.2209    7.2823    4.3691 H   0  0  0  0  0  0  0  0  0  0  0  0
    7.0487    6.9566    5.2165 N   0  0  0  0  0  0  0  0  0  0  0  0
    6.9724    7.5868    3.1866 H   0  0  0  0  0  0  0  0  0  0  0  0
    6.0411    6.1128    3.5609 H   0  0  0  0  0  0  0  0  0  0  0  0
    5.4529    6.8479    6.6083 H   0  0  0  0  0  0  0  0  0  0  0  0
    6.6990    8.0295    7.0635 H   0  0  0  0  0  0  0  0  0  0  0  0
    7.4315    5.5682    5.5467 C   0  0  0  0  0  0  0  0  0  0  0  0
    8.6990    5.1544    4.8062 C   0  0  0  0  0  0  0  0  0  0  0  0
    6.5985    4.9210    5.2700 H   0  0  0  0  0  0  0  0  0  0  0  0
    7.6017    5.5158    6.6250 H   0  0  0  0  0  0  0  0  0  0  0  0
    9.9446    5.8803    5.3157 C   0  0  0  0  0  0  0  0  0  0  0  0
    8.5786    5.3159    3.7319 H   0  0  0  0  0  0  0  0  0  0  0  0
    8.8338    4.0837    4.9589 H   0  0  0  0  0  0  0  0  0  0  0  0
   11.2075    5.3616    4.6377 C   0  0  0  0  0  0  0  0  0  0  0  0
   10.0305    5.7407    6.3943 H   0  0  0  0  0  0  0  0  0  0  0  0
    9.8705    6.9537    5.1242 H   0  0  0  0  0  0  0  0  0  0  0  0
   12.0784    5.8776    5.0308 H   0  0  0  0  0  0  0  0  0  0  0  0
   11.1630    5.5208    3.5618 H   0  0  0  0  0  0  0  0  0  0  0  0
   11.3302    4.2984    4.8250 H   0  0  0  0  0  0  0  0  0  0  0  0
    7.9089    7.5212    5.1922 H   0  0  0  0  0  0  0  0  0  0  0  0
  1  3  1  0  0  0  0
  1  4  1  0  0  0  0
  1  5  1  0  0  0  0
  2  6  1  0  0  0  0
  2  7  1  0  0  0  0
  2  8  1  0  0  0  0
  1  9  1  0  0  0  0
  2 10  1  0  0  0  0
  9 11  1  0  0  0  0
 10 11  1  0  0  0  0
  9 12  2  0  0  0  0
  9 13  2  0  0  0  0
 10 14  2  0  0  0  0
 10 15  2  0  0  0  0
 16 18  1  0  0  0  0
 16 19  1  0  0  0  0
 16 20  1  0  0  0  0
 17 21  1  0  0  0  0
 17 22  1  0  0  0  0
 17 23  1  0  0  0  0
 16 24  1  0  0  0  0
 17 25  1  0  0  0  0
 24 26  1  0  0  0  0
 25 26  1  0  0  0  0
 24 27  2  0  0  0  0
 24 28  2  0  0  0  0
 25 29  2  0  0  0  0
 25 30  2  0  0  0  0
 31 32  2  0  0  0  0
 31 33  1  0  0  0  0
 31 34  1  0  0  0  0
 32 35  1  0  0  0  0
 32 36  1  0  0  0  0
 35 37  4  0  0  0  0
 37 38  4  0  0  0  0
 38 39  4  0  0  0  0
 35 40  4  0  0  0  0
 39 41  4  0  0  0  0
 40 41  4  0  0  0  0
 40 42  1  0  0  0  0
 41 43  1  0  0  0  0
 38 44  1  0  0  0  0
 37 45  1  0  0  0  0
 39 46  1  0  0  0  0
 46 47  1  0  0  0  0
 46 48  1  0  0  0  0
 46 49  1  0  0  0  0
 47 50  1  0  0  0  0
 47 51  1  0  0  0  0
 51 52  1  0  0  0  0
 51 53  1  0  0  0  0
 51 54  1  0  0  0  0
 50 55  1  0  0  0  0
 52 55  1  0  0  0  0
 52 56  1  0  0  0  0
 52 57  1  0  0  0  0
 50 58  1  0  0  0  0
 50 59  1  0  0  0  0
 55 60  1  0  0  0  0
 60 61  1  0  0  0  0
 60 62  1  0  0  0  0
 60 63  1  0  0  0  0
 61 64  1  0  0  0  0
 61 65  1  0  0  0  0
 61 66  1  0  0  0  0
 64 67  1  0  0  0  0
 64 68  1  0  0  0  0
 64 69  1  0  0  0  0
 67 70  1  0  0  0  0
 67 71  1  0  0  0  0
 67 72  1  0  0  0  0
 55 73  1  0  0  0  0
 74 75  2  0  0  0  0
 74 76  1  0  0  0  0
 74 77  1  0  0  0  0
 75 78  1  0  0  0  0
 75 79  1  0  0  0  0
 78 80  4  0  0  0  0
 80 81  4  0  0  0  0
 81 82  4  0  0  0  0
 78 83  4  0  0  0  0
 82 84  4  0  0  0  0
 83 84  4  0  0  0  0
 83 85  1  0  0  0  0
 84 86  1  0  0  0  0
 81 87  1  0  0  0  0
 80 88  1  0  0  0  0
 82 89  1  0  0  0  0
 89 90  1  0  0  0  0
 89 91  1  0  0  0  0
 89 92  1  0  0  0  0
 90 93  1  0  0  0  0
 90 94  1  0  0  0  0
 94 95  1  0  0  0  0
 94 96  1  0  0  0  0
 94 97  1  0  0  0  0
 93 98  1  0  0  0  0
 95 98  1  0  0  0  0
 95 99  1  0  0  0  0
 95100  1  0  0  0  0
 93101  1  0  0  0  0
 93102  1  0  0  0  0
 98103  1  0  0  0  0
103104  1  0  0  0  0
103105  1  0  0  0  0
103106  1  0  0  0  0
104107  1  0  0  0  0
104108  1  0  0  0  0
104109  1  0  0  0  0
107110  1  0  0  0  0
107111  1  0  0  0  0
107112  1  0  0  0  0
110113  1  0  0  0  0
110114  1  0  0  0  0
110115  1  0  0  0  0
 98116  1  0  0  0  0
M  END
