 xtb: 6.7.1 (edcfbbe)
          10212513543D

116116  0     0  0            999 V2000
    3.6503    8.3026    2.6794 C   0  0  0  0  0  0  0  0  0  0  0  0
    0.4952    5.0147    2.7740 C   0  0  0  0  0  0  0  0  0  0  0  0
    2.3989    8.3665    2.2184 F   0  0  0  0  0  0  0  0  0  0  0  0
    3.9467    9.5225    3.1322 F   0  0  0  0  0  0  0  0  0  0  0  0
    4.4698    8.0215    1.6855 F   0  0  0  0  0  0  0  0  0  0  0  0
    0.0325    4.6046    3.9569 F   0  0  0  0  0  0  0  0  0  0  0  0
   -0.0708    6.1895    2.5066 F   0  0  0  0  0  0  0  0  0  0  0  0
    0.0874    4.1408    1.8561 F   0  0  0  0  0  0  0  0  0  0  0  0
    3.7387    7.0457    4.0798 S   0  0  0  0  0  0  0  0  0  0  0  0
    2.3630    5.1955    2.8623 S   0  0  0  0  0  0  0  0  0  0  0  0
    2.3755    6.2703    4.0416 N   0  0  0  0  0  0  0  0  0  0  0  0
    4.8450    6.1671    3.7849 O   0  0  0  0  0  0  0  0  0  0  0  0
    3.8432    7.8017    5.2937 O   0  0  0  0  0  0  0  0  0  0  0  0
    2.8085    5.7334    1.6237 O   0  0  0  0  0  0  0  0  0  0  0  0
    2.8479    3.9089    3.2615 O   0  0  0  0  0  0  0  0  0  0  0  0
   10.9973    8.0628    6.4243 C   0  0  0  0  0  0  0  0  0  0  0  0
    6.7059    9.6059    5.0009 C   0  0  0  0  0  0  0  0  0  0  0  0
   11.5915    8.6802    7.4457 F   0  0  0  0  0  0  0  0  0  0  0  0
   10.3109    7.0302    6.9312 F   0  0  0  0  0  0  0  0  0  0  0  0
   11.9534    7.5509    5.6477 F   0  0  0  0  0  0  0  0  0  0  0  0
    5.5188   10.1764    5.2715 F   0  0  0  0  0  0  0  0  0  0  0  0
    7.4131   10.5174    4.3394 F   0  0  0  0  0  0  0  0  0  0  0  0
    6.4653    8.5721    4.2038 F   0  0  0  0  0  0  0  0  0  0  0  0
    9.8617    9.2509    5.4886 S   0  0  0  0  0  0  0  0  0  0  0  0
    7.5072    9.1226    6.6485 S   0  0  0  0  0  0  0  0  0  0  0  0
    8.9249    9.7831    6.6514 N   0  0  0  0  0  0  0  0  0  0  0  0
   10.7477   10.2402    4.9819 O   0  0  0  0  0  0  0  0  0  0  0  0
    9.1297    8.4279    4.5745 O   0  0  0  0  0  0  0  0  0  0  0  0
    7.4558    7.6883    6.7002 O   0  0  0  0  0  0  0  0  0  0  0  0
    6.6661    9.7701    7.6248 O   0  0  0  0  0  0  0  0  0  0  0  0
   13.1924    4.8965   -0.4558 C   0  0  0  0  0  0  0  0  0  0  0  0
   13.0563    4.9790    0.8626 C   0  0  0  0  0  0  0  0  0  0  0  0
   14.1553    4.7454   -0.9133 H   0  0  0  0  0  0  0  0  0  0  0  0
   12.3566    4.9685   -1.1307 H   0  0  0  0  0  0  0  0  0  0  0  0
   11.8111    5.1631    1.5987 C   0  0  0  0  0  0  0  0  0  0  0  0
   13.9370    4.8809    1.4865 H   0  0  0  0  0  0  0  0  0  0  0  0
   11.8106    4.9845    2.9837 C   0  0  0  0  0  0  0  0  0  0  0  0
   10.6506    5.1144    3.7182 C   0  0  0  0  0  0  0  0  0  0  0  0
    9.4503    5.4369    3.0966 C   0  0  0  0  0  0  0  0  0  0  0  0
   10.6067    5.5058    0.9848 C   0  0  0  0  0  0  0  0  0  0  0  0
    9.4470    5.6391    1.7236 C   0  0  0  0  0  0  0  0  0  0  0  0
   10.5763    5.6762   -0.0806 H   0  0  0  0  0  0  0  0  0  0  0  0
    8.5249    5.9105    1.2299 H   0  0  0  0  0  0  0  0  0  0  0  0
   10.6673    4.9650    4.7868 H   0  0  0  0  0  0  0  0  0  0  0  0
   12.7359    4.7379    3.4851 H   0  0  0  0  0  0  0  0  0  0  0  0
    8.1935    5.5633    3.9128 C   0  0  0  0  0  0  0  0  0  0  0  0
    8.0259    4.3673    4.7474 N   0  0  0  0  0  0  0  0  0  0  0  0
    7.3289    5.7097    3.2605 H   0  0  0  0  0  0  0  0  0  0  0  0
    8.2719    6.4557    4.5375 H   0  0  0  0  0  0  0  0  0  0  0  0
    6.8721    3.6012    4.4949 C   0  0  0  0  0  0  0  0  0  0  0  0
    7.9922    4.5778    6.1777 C   0  0  0  0  0  0  0  0  0  0  0  0
    6.4958    4.7763    6.5261 C   0  0  0  0  0  0  0  0  0  0  0  0
    8.5752    5.4460    6.4685 H   0  0  0  0  0  0  0  0  0  0  0  0
    8.3897    3.6857    6.6728 H   0  0  0  0  0  0  0  0  0  0  0  0
    5.7717    4.2325    5.3531 N   0  0  0  0  0  0  0  0  0  0  0  0
    6.2930    5.8395    6.6485 H   0  0  0  0  0  0  0  0  0  0  0  0
    6.2162    4.2287    7.4252 H   0  0  0  0  0  0  0  0  0  0  0  0
    7.0027    2.5754    4.8620 H   0  0  0  0  0  0  0  0  0  0  0  0
    6.5745    3.5936    3.4481 H   0  0  0  0  0  0  0  0  0  0  0  0
    4.6564    3.3252    5.6473 C   0  0  0  0  0  0  0  0  0  0  0  0
    3.5193    4.0125    6.3955 C   0  0  0  0  0  0  0  0  0  0  0  0
    5.0397    2.4757    6.2235 H   0  0  0  0  0  0  0  0  0  0  0  0
    4.2584    2.9700    4.6937 H   0  0  0  0  0  0  0  0  0  0  0  0
    2.3122    3.0768    6.4846 C   0  0  0  0  0  0  0  0  0  0  0  0
    3.2322    4.9107    5.8435 H   0  0  0  0  0  0  0  0  0  0  0  0
    3.8380    4.3028    7.4000 H   0  0  0  0  0  0  0  0  0  0  0  0
    1.1374    3.7270    7.2024 C   0  0  0  0  0  0  0  0  0  0  0  0
    2.5999    2.1618    7.0079 H   0  0  0  0  0  0  0  0  0  0  0  0
    2.0108    2.8132    5.4711 H   0  0  0  0  0  0  0  0  0  0  0  0
    1.4137    4.0091    8.2176 H   0  0  0  0  0  0  0  0  0  0  0  0
    0.3012    3.0355    7.2572 H   0  0  0  0  0  0  0  0  0  0  0  0
    0.8100    4.6088    6.6587 H   0  0  0  0  0  0  0  0  0  0  0  0
    5.4019    5.0307    4.7832 H   0  0  0  0  0  0  0  0  0  0  0  0
   -0.4530   10.0849    3.2975 C   0  0  0  0  0  0  0  0  0  0  0  0
   -0.5707   10.4219    4.5765 C   0  0  0  0  0  0  0  0  0  0  0  0
   -0.8251   10.7290    2.5193 H   0  0  0  0  0  0  0  0  0  0  0  0
    0.0053    9.1672    2.9731 H   0  0  0  0  0  0  0  0  0  0  0  0
   -0.1172    9.6338    5.7152 C   0  0  0  0  0  0  0  0  0  0  0  0
   -1.0592   11.3536    4.8385 H   0  0  0  0  0  0  0  0  0  0  0  0
   -0.4554   10.0456    7.0071 C   0  0  0  0  0  0  0  0  0  0  0  0
   -0.0577    9.3208    8.1143 C   0  0  0  0  0  0  0  0  0  0  0  0
    0.6906    8.1525    7.9706 C   0  0  0  0  0  0  0  0  0  0  0  0
    0.6333    8.4652    5.5788 C   0  0  0  0  0  0  0  0  0  0  0  0
    1.0268    7.7398    6.6847 C   0  0  0  0  0  0  0  0  0  0  0  0
    0.9174    8.0936    4.6090 H   0  0  0  0  0  0  0  0  0  0  0  0
    1.5955    6.8388    6.5208 H   0  0  0  0  0  0  0  0  0  0  0  0
   -0.3642    9.6462    9.1007 H   0  0  0  0  0  0  0  0  0  0  0  0
   -1.0536   10.9353    7.1408 H   0  0  0  0  0  0  0  0  0  0  0  0
    1.1230    7.3630    9.1825 C   0  0  0  0  0  0  0  0  0  0  0  0
    2.4414    7.7008    9.7230 N   0  0  0  0  0  0  0  0  0  0  0  0
    1.1447    6.2997    8.9431 H   0  0  0  0  0  0  0  0  0  0  0  0
    0.4081    7.5098    9.9973 H   0  0  0  0  0  0  0  0  0  0  0  0
    2.6253    9.0642   10.0594 C   0  0  0  0  0  0  0  0  0  0  0  0
    3.5870    7.3993    8.8744 C   0  0  0  0  0  0  0  0  0  0  0  0
    3.9505    8.7135    8.1492 C   0  0  0  0  0  0  0  0  0  0  0  0
    3.3511    6.6064    8.1701 H   0  0  0  0  0  0  0  0  0  0  0  0
    4.4112    7.0725    9.5135 H   0  0  0  0  0  0  0  0  0  0  0  0
    3.0885    9.7430    8.7859 N   0  0  0  0  0  0  0  0  0  0  0  0
    3.7537    8.6461    7.0808 H   0  0  0  0  0  0  0  0  0  0  0  0
    5.0003    8.9804    8.2783 H   0  0  0  0  0  0  0  0  0  0  0  0
    3.4436    9.1645   10.7808 H   0  0  0  0  0  0  0  0  0  0  0  0
    1.7214    9.5311   10.4508 H   0  0  0  0  0  0  0  0  0  0  0  0
    3.7116   11.0601    9.0007 C   0  0  0  0  0  0  0  0  0  0  0  0
    4.0782   11.7502    7.6905 C   0  0  0  0  0  0  0  0  0  0  0  0
    4.6229   10.9133    9.5831 H   0  0  0  0  0  0  0  0  0  0  0  0
    3.0082   11.6668    9.5774 H   0  0  0  0  0  0  0  0  0  0  0  0
    2.9329   11.8636    6.6846 C   0  0  0  0  0  0  0  0  0  0  0  0
    4.9079   11.2116    7.2396 H   0  0  0  0  0  0  0  0  0  0  0  0
    4.4327   12.7506    7.9423 H   0  0  0  0  0  0  0  0  0  0  0  0
    1.7505   12.6757    7.2052 C   0  0  0  0  0  0  0  0  0  0  0  0
    2.6032   10.8741    6.3584 H   0  0  0  0  0  0  0  0  0  0  0  0
    3.3305   12.3538    5.7968 H   0  0  0  0  0  0  0  0  0  0  0  0
    1.0215   12.8183    6.4122 H   0  0  0  0  0  0  0  0  0  0  0  0
    2.0832   13.6557    7.5398 H   0  0  0  0  0  0  0  0  0  0  0  0
    1.2462   12.1834    8.0351 H   0  0  0  0  0  0  0  0  0  0  0  0
    2.2589    9.8669    8.1878 H   0  0  0  0  0  0  0  0  0  0  0  0
  1  3  1  0  0  0  0
  1  4  1  0  0  0  0
  1  5  1  0  0  0  0
  2  6  1  0  0  0  0
  2  7  1  0  0  0  0
  2  8  1  0  0  0  0
  1  9  1  0  0  0  0
  2 10  1  0  0  0  0
  9 11  1  0  0  0  0
 10 11  1  0  0  0  0
  9 12  2  0  0  0  0
  9 13  2  0  0  0  0
 10 14  2  0  0  0  0
 10 15  2  0  0  0  0
 16 18  1  0  0  0  0
 16 19  1  0  0  0  0
 16 20  1  0  0  0  0
 17 21  1  0  0  0  0
 17 22  1  0  0  0  0
 17 23  1  0  0  0  0
 16 24  1  0  0  0  0
 17 25  1  0  0  0  0
 24 26  1  0  0  0  0
 25 26  1  0  0  0  0
 24 27  2  0  0  0  0
 24 28  2  0  0  0  0
 25 29  2  0  0  0  0
 25 30  2  0  0  0  0
 31 32  2  0  0  0  0
 31 33  1  0  0  0  0
 31 34  1  0  0  0  0
 32 35  1  0  0  0  0
 32 36  1  0  0  0  0
 35 37  4  0  0  0  0
 37 38  4  0  0  0  0
 38 39  4  0  0  0  0
 35 40  4  0  0  0  0
 39 41  4  0  0  0  0
 40 41  4  0  0  0  0
 40 42  1  0  0  0  0
 41 43  1  0  0  0  0
 38 44  1  0  0  0  0
 37 45  1  0  0  0  0
 39 46  1  0  0  0  0
 46 47  1  0  0  0  0
 46 48  1  0  0  0  0
 46 49  1  0  0  0  0
 47 50  1  0  0  0  0
 47 51  1  0  0  0  0
 51 52  1  0  0  0  0
 51 53  1  0  0  0  0
 51 54  1  0  0  0  0
 50 55  1  0  0  0  0
 52 55  1  0  0  0  0
 52 56  1  0  0  0  0
 52 57  1  0  0  0  0
 50 58  1  0  0  0  0
 50 59  1  0  0  0  0
 55 60  1  0  0  0  0
 60 61  1  0  0  0  0
 60 62  1  0  0  0  0
 60 63  1  0  0  0  0
 61 64  1  0  0  0  0
 61 65  1  0  0  0  0
 61 66  1  0  0  0  0
 64 67  1  0  0  0  0
 64 68  1  0  0  0  0
 64 69  1  0  0  0  0
 67 70  1  0  0  0  0
 67 71  1  0  0  0  0
 67 72  1  0  0  0  0
 55 73  1  0  0  0  0
 74 75  2  0  0  0  0
 74 76  1  0  0  0  0
 74 77  1  0  0  0  0
 75 78  1  0  0  0  0
 75 79  1  0  0  0  0
 78 80  4  0  0  0  0
 80 81  4  0  0  0  0
 81 82  4  0  0  0  0
 78 83  4  0  0  0  0
 82 84  4  0  0  0  0
 83 84  4  0  0  0  0
 83 85  1  0  0  0  0
 84 86  1  0  0  0  0
 81 87  1  0  0  0  0
 80 88  1  0  0  0  0
 82 89  1  0  0  0  0
 89 90  1  0  0  0  0
 89 91  1  0  0  0  0
 89 92  1  0  0  0  0
 90 93  1  0  0  0  0
 90 94  1  0  0  0  0
 94 95  1  0  0  0  0
 94 96  1  0  0  0  0
 94 97  1  0  0  0  0
 93 98  1  0  0  0  0
 95 98  1  0  0  0  0
 95 99  1  0  0  0  0
 95100  1  0  0  0  0
 93101  1  0  0  0  0
 93102  1  0  0  0  0
 98103  1  0  0  0  0
103104  1  0  0  0  0
103105  1  0  0  0  0
103106  1  0  0  0  0
104107  1  0  0  0  0
104108  1  0  0  0  0
104109  1  0  0  0  0
107110  1  0  0  0  0
107111  1  0  0  0  0
107112  1  0  0  0  0
110113  1  0  0  0  0
110114  1  0  0  0  0
110115  1  0  0  0  0
 98116  1  0  0  0  0
M  END
