 xtb: 6.7.1 (edcfbbe)
          10212513373D

116116  0     0  0            999 V2000
    2.6235    5.9993    1.3313 C   0  0  0  0  0  0  0  0  0  0  0  0
    1.7953    2.6987    4.8634 C   0  0  0  0  0  0  0  0  0  0  0  0
    1.3489    5.7527    1.6297 F   0  0  0  0  0  0  0  0  0  0  0  0
    2.6607    7.0539    0.5430 F   0  0  0  0  0  0  0  0  0  0  0  0
    3.0606    4.9593    0.6052 F   0  0  0  0  0  0  0  0  0  0  0  0
    2.8416    1.8593    4.8410 F   0  0  0  0  0  0  0  0  0  0  0  0
    1.1199    2.4431    5.9896 F   0  0  0  0  0  0  0  0  0  0  0  0
    1.0073    2.3804    3.8419 F   0  0  0  0  0  0  0  0  0  0  0  0
    3.6263    5.8401    2.9204 S   0  0  0  0  0  0  0  0  0  0  0  0
    2.3962    4.4907    4.8161 S   0  0  0  0  0  0  0  0  0  0  0  0
    3.0465    4.4401    3.3706 N   0  0  0  0  0  0  0  0  0  0  0  0
    4.9855    5.6458    2.4769 O   0  0  0  0  0  0  0  0  0  0  0  0
    3.3498    6.7911    3.9620 O   0  0  0  0  0  0  0  0  0  0  0  0
    3.3903    4.4933    5.8527 O   0  0  0  0  0  0  0  0  0  0  0  0
    1.2153    5.2646    4.9768 O   0  0  0  0  0  0  0  0  0  0  0  0
    1.4038    9.1785    3.5479 C   0  0  0  0  0  0  0  0  0  0  0  0
    6.1380    9.8433    2.7436 C   0  0  0  0  0  0  0  0  0  0  0  0
    0.4027    9.9942    3.1963 F   0  0  0  0  0  0  0  0  0  0  0  0
    1.4790    8.2285    2.6314 F   0  0  0  0  0  0  0  0  0  0  0  0
    1.0657    8.6384    4.7186 F   0  0  0  0  0  0  0  0  0  0  0  0
    5.8277   10.4413    1.6072 F   0  0  0  0  0  0  0  0  0  0  0  0
    6.2984   10.7950    3.6857 F   0  0  0  0  0  0  0  0  0  0  0  0
    7.3550    9.2917    2.5725 F   0  0  0  0  0  0  0  0  0  0  0  0
    2.9353   10.2298    3.8007 S   0  0  0  0  0  0  0  0  0  0  0  0
    4.9195    8.5000    3.3476 S   0  0  0  0  0  0  0  0  0  0  0  0
    4.0718    9.3109    4.3958 N   0  0  0  0  0  0  0  0  0  0  0  0
    3.2700   10.8223    2.5540 O   0  0  0  0  0  0  0  0  0  0  0  0
    2.4865   11.0949    4.8633 O   0  0  0  0  0  0  0  0  0  0  0  0
    5.8412    7.6427    4.0401 O   0  0  0  0  0  0  0  0  0  0  0  0
    4.2922    8.1002    2.1305 O   0  0  0  0  0  0  0  0  0  0  0  0
    0.4650    4.3901    9.2867 C   0  0  0  0  0  0  0  0  0  0  0  0
    0.7861    5.2518    8.3281 C   0  0  0  0  0  0  0  0  0  0  0  0
   -0.5197    3.9597    9.3406 H   0  0  0  0  0  0  0  0  0  0  0  0
    1.1578    4.0768   10.0503 H   0  0  0  0  0  0  0  0  0  0  0  0
    2.0803    5.8923    8.1331 C   0  0  0  0  0  0  0  0  0  0  0  0
    0.0453    5.5250    7.5881 H   0  0  0  0  0  0  0  0  0  0  0  0
    2.1897    6.8881    7.1606 C   0  0  0  0  0  0  0  0  0  0  0  0
    3.3987    7.5118    6.9041 C   0  0  0  0  0  0  0  0  0  0  0  0
    4.5372    7.1654    7.6366 C   0  0  0  0  0  0  0  0  0  0  0  0
    3.2280    5.5364    8.8407 C   0  0  0  0  0  0  0  0  0  0  0  0
    4.4318    6.1725    8.6039 C   0  0  0  0  0  0  0  0  0  0  0  0
    3.1848    4.7444    9.5720 H   0  0  0  0  0  0  0  0  0  0  0  0
    5.3110    5.8793    9.1627 H   0  0  0  0  0  0  0  0  0  0  0  0
    3.4863    8.1781    6.0559 H   0  0  0  0  0  0  0  0  0  0  0  0
    1.3276    7.1478    6.5700 H   0  0  0  0  0  0  0  0  0  0  0  0
    5.8286    7.9143    7.4211 C   0  0  0  0  0  0  0  0  0  0  0  0
    5.8174    9.2981    7.9216 N   0  0  0  0  0  0  0  0  0  0  0  0
    6.0589    7.9415    6.3566 H   0  0  0  0  0  0  0  0  0  0  0  0
    6.6446    7.4049    7.9456 H   0  0  0  0  0  0  0  0  0  0  0  0
    4.9261    9.5461    8.9942 C   0  0  0  0  0  0  0  0  0  0  0  0
    5.5520   10.3623    6.9526 C   0  0  0  0  0  0  0  0  0  0  0  0
    4.1910   10.9724    7.3441 C   0  0  0  0  0  0  0  0  0  0  0  0
    5.5084    9.9654    5.9399 H   0  0  0  0  0  0  0  0  0  0  0  0
    6.3462   11.1104    7.0092 H   0  0  0  0  0  0  0  0  0  0  0  0
    3.6495   10.0054    8.3237 N   0  0  0  0  0  0  0  0  0  0  0  0
    3.5329   11.0783    6.4786 H   0  0  0  0  0  0  0  0  0  0  0  0
    4.3110   11.9361    7.8431 H   0  0  0  0  0  0  0  0  0  0  0  0
    5.2773   10.3852    9.6080 H   0  0  0  0  0  0  0  0  0  0  0  0
    4.7707    8.6661    9.6158 H   0  0  0  0  0  0  0  0  0  0  0  0
    2.5602   10.5230    9.1676 C   0  0  0  0  0  0  0  0  0  0  0  0
    1.6477    9.4295    9.7196 C   0  0  0  0  0  0  0  0  0  0  0  0
    1.9598   11.1902    8.5437 H   0  0  0  0  0  0  0  0  0  0  0  0
    3.0010   11.1078    9.9819 H   0  0  0  0  0  0  0  0  0  0  0  0
    2.2765    8.5203   10.7767 C   0  0  0  0  0  0  0  0  0  0  0  0
    1.2775    8.8173    8.8957 H   0  0  0  0  0  0  0  0  0  0  0  0
    0.7873    9.9297   10.1686 H   0  0  0  0  0  0  0  0  0  0  0  0
    1.2148    7.6644   11.4589 C   0  0  0  0  0  0  0  0  0  0  0  0
    2.7907    9.1270   11.5263 H   0  0  0  0  0  0  0  0  0  0  0  0
    2.9992    7.8480   10.3150 H   0  0  0  0  0  0  0  0  0  0  0  0
    1.6729    7.0189   12.2033 H   0  0  0  0  0  0  0  0  0  0  0  0
    0.7107    7.0382   10.7278 H   0  0  0  0  0  0  0  0  0  0  0  0
    0.4748    8.2873   11.9552 H   0  0  0  0  0  0  0  0  0  0  0  0
    3.3114    9.1727    7.7782 H   0  0  0  0  0  0  0  0  0  0  0  0
   11.7510    9.4442    9.5888 C   0  0  0  0  0  0  0  0  0  0  0  0
   10.8324    9.7393    8.6762 C   0  0  0  0  0  0  0  0  0  0  0  0
   12.0369   10.1562   10.3440 H   0  0  0  0  0  0  0  0  0  0  0  0
   12.2555    8.4939    9.6246 H   0  0  0  0  0  0  0  0  0  0  0  0
   10.3530    8.8760    7.6042 C   0  0  0  0  0  0  0  0  0  0  0  0
   10.3642   10.7160    8.7045 H   0  0  0  0  0  0  0  0  0  0  0  0
    9.3182    9.3305    6.7851 C   0  0  0  0  0  0  0  0  0  0  0  0
    8.8159    8.5472    5.7651 C   0  0  0  0  0  0  0  0  0  0  0  0
    9.3401    7.2838    5.5263 C   0  0  0  0  0  0  0  0  0  0  0  0
   10.8799    7.6078    7.3507 C   0  0  0  0  0  0  0  0  0  0  0  0
   10.3832    6.8278    6.3264 C   0  0  0  0  0  0  0  0  0  0  0  0
   11.6901    7.2304    7.9551 H   0  0  0  0  0  0  0  0  0  0  0  0
   10.7973    5.8484    6.1394 H   0  0  0  0  0  0  0  0  0  0  0  0
    8.0121    8.9098    5.1439 H   0  0  0  0  0  0  0  0  0  0  0  0
    8.9004   10.3118    6.9555 H   0  0  0  0  0  0  0  0  0  0  0  0
    8.7816    6.4326    4.4207 C   0  0  0  0  0  0  0  0  0  0  0  0
    8.6319    5.0402    4.8598 N   0  0  0  0  0  0  0  0  0  0  0  0
    9.4913    6.4233    3.5870 H   0  0  0  0  0  0  0  0  0  0  0  0
    7.8382    6.8654    4.0707 H   0  0  0  0  0  0  0  0  0  0  0  0
    8.0650    4.1813    3.8764 C   0  0  0  0  0  0  0  0  0  0  0  0
    7.7406    4.8726    5.9938 C   0  0  0  0  0  0  0  0  0  0  0  0
    6.3324    4.8257    5.3811 C   0  0  0  0  0  0  0  0  0  0  0  0
    7.8648    5.6844    6.7048 H   0  0  0  0  0  0  0  0  0  0  0  0
    7.9868    3.9259    6.4849 H   0  0  0  0  0  0  0  0  0  0  0  0
    6.5578    4.2380    4.0345 N   0  0  0  0  0  0  0  0  0  0  0  0
    5.9246    5.8286    5.2537 H   0  0  0  0  0  0  0  0  0  0  0  0
    5.6136    4.2410    5.9506 H   0  0  0  0  0  0  0  0  0  0  0  0
    8.3680    3.1488    4.0877 H   0  0  0  0  0  0  0  0  0  0  0  0
    8.3600    4.4562    2.8650 H   0  0  0  0  0  0  0  0  0  0  0  0
    5.8865    2.9450    3.8064 C   0  0  0  0  0  0  0  0  0  0  0  0
    6.1292    2.4268    2.3911 C   0  0  0  0  0  0  0  0  0  0  0  0
    4.8168    3.1106    3.9435 H   0  0  0  0  0  0  0  0  0  0  0  0
    6.2403    2.2263    4.5515 H   0  0  0  0  0  0  0  0  0  0  0  0
    5.1775    1.2703    2.0611 C   0  0  0  0  0  0  0  0  0  0  0  0
    7.1638    2.0927    2.2845 H   0  0  0  0  0  0  0  0  0  0  0  0
    5.9497    3.2407    1.6876 H   0  0  0  0  0  0  0  0  0  0  0  0
    3.8376    1.7706    1.5347 C   0  0  0  0  0  0  0  0  0  0  0  0
    5.0199    0.6679    2.9574 H   0  0  0  0  0  0  0  0  0  0  0  0
    5.6398    0.6289    1.3081 H   0  0  0  0  0  0  0  0  0  0  0  0
    3.1328    0.9476    1.4524 H   0  0  0  0  0  0  0  0  0  0  0  0
    3.9616    2.2181    0.5520 H   0  0  0  0  0  0  0  0  0  0  0  0
    3.4164    2.5277    2.1900 H   0  0  0  0  0  0  0  0  0  0  0  0
    6.1165    4.8927    3.3418 H   0  0  0  0  0  0  0  0  0  0  0  0
  1  3  1  0  0  0  0
  1  4  1  0  0  0  0
  1  5  1  0  0  0  0
  2  6  1  0  0  0  0
  2  7  1  0  0  0  0
  2  8  1  0  0  0  0
  1  9  1  0  0  0  0
  2 10  1  0  0  0  0
  9 11  1  0  0  0  0
 10 11  1  0  0  0  0
  9 12  2  0  0  0  0
  9 13  2  0  0  0  0
 10 14  2  0  0  0  0
 10 15  2  0  0  0  0
 16 18  1  0  0  0  0
 16 19  1  0  0  0  0
 16 20  1  0  0  0  0
 17 21  1  0  0  0  0
 17 22  1  0  0  0  0
 17 23  1  0  0  0  0
 16 24  1  0  0  0  0
 17 25  1  0  0  0  0
 24 26  1  0  0  0  0
 25 26  1  0  0  0  0
 24 27  2  0  0  0  0
 24 28  2  0  0  0  0
 25 29  2  0  0  0  0
 25 30  2  0  0  0  0
 31 32  2  0  0  0  0
 31 33  1  0  0  0  0
 31 34  1  0  0  0  0
 32 35  1  0  0  0  0
 32 36  1  0  0  0  0
 35 37  4  0  0  0  0
 37 38  4  0  0  0  0
 38 39  4  0  0  0  0
 35 40  4  0  0  0  0
 39 41  4  0  0  0  0
 40 41  4  0  0  0  0
 40 42  1  0  0  0  0
 41 43  1  0  0  0  0
 38 44  1  0  0  0  0
 37 45  1  0  0  0  0
 39 46  1  0  0  0  0
 46 47  1  0  0  0  0
 46 48  1  0  0  0  0
 46 49  1  0  0  0  0
 47 50  1  0  0  0  0
 47 51  1  0  0  0  0
 51 52  1  0  0  0  0
 51 53  1  0  0  0  0
 51 54  1  0  0  0  0
 50 55  1  0  0  0  0
 52 55  1  0  0  0  0
 52 56  1  0  0  0  0
 52 57  1  0  0  0  0
 50 58  1  0  0  0  0
 50 59  1  0  0  0  0
 55 60  1  0  0  0  0
 60 61  1  0  0  0  0
 60 62  1  0  0  0  0
 60 63  1  0  0  0  0
 61 64  1  0  0  0  0
 61 65  1  0  0  0  0
 61 66  1  0  0  0  0
 64 67  1  0  0  0  0
 64 68  1  0  0  0  0
 64 69  1  0  0  0  0
 67 70  1  0  0  0  0
 67 71  1  0  0  0  0
 67 72  1  0  0  0  0
 55 73  1  0  0  0  0
 74 75  2  0  0  0  0
 74 76  1  0  0  0  0
 74 77  1  0  0  0  0
 75 78  1  0  0  0  0
 75 79  1  0  0  0  0
 78 80  4  0  0  0  0
 80 81  4  0  0  0  0
 81 82  4  0  0  0  0
 78 83  4  0  0  0  0
 82 84  4  0  0  0  0
 83 84  4  0  0  0  0
 83 85  1  0  0  0  0
 84 86  1  0  0  0  0
 81 87  1  0  0  0  0
 80 88  1  0  0  0  0
 82 89  1  0  0  0  0
 89 90  1  0  0  0  0
 89 91  1  0  0  0  0
 89 92  1  0  0  0  0
 90 93  1  0  0  0  0
 90 94  1  0  0  0  0
 94 95  1  0  0  0  0
 94 96  1  0  0  0  0
 94 97  1  0  0  0  0
 93 98  1  0  0  0  0
 95 98  1  0  0  0  0
 95 99  1  0  0  0  0
 95100  1  0  0  0  0
 93101  1  0  0  0  0
 93102  1  0  0  0  0
 98103  1  0  0  0  0
103104  1  0  0  0  0
103105  1  0  0  0  0
103106  1  0  0  0  0
104107  1  0  0  0  0
104108  1  0  0  0  0
104109  1  0  0  0  0
107110  1  0  0  0  0
107111  1  0  0  0  0
107112  1  0  0  0  0
110113  1  0  0  0  0
110114  1  0  0  0  0
110115  1  0  0  0  0
 98116  1  0  0  0  0
M  END
