 xtb: 6.7.1 (edcfbbe)
          10212513303D

116116  0     0  0            999 V2000
    2.7415    7.7886    7.8592 C   0  0  0  0  0  0  0  0  0  0  0  0
    4.1200   12.2738    7.7953 C   0  0  0  0  0  0  0  0  0  0  0  0
    2.6941    6.5853    7.2485 F   0  0  0  0  0  0  0  0  0  0  0  0
    3.2350    7.5938    9.0610 F   0  0  0  0  0  0  0  0  0  0  0  0
    1.4750    8.1963    7.9320 F   0  0  0  0  0  0  0  0  0  0  0  0
    4.6842   12.4018    8.9927 F   0  0  0  0  0  0  0  0  0  0  0  0
    5.0786   11.8906    6.9415 F   0  0  0  0  0  0  0  0  0  0  0  0
    3.7148   13.4797    7.4018 F   0  0  0  0  0  0  0  0  0  0  0  0
    3.7545    8.9360    6.7432 S   0  0  0  0  0  0  0  0  0  0  0  0
    2.6797   11.0392    7.8350 S   0  0  0  0  0  0  0  0  0  0  0  0
    2.8676   10.2037    6.4904 N   0  0  0  0  0  0  0  0  0  0  0  0
    5.0185    9.1512    7.3613 O   0  0  0  0  0  0  0  0  0  0  0  0
    3.7903    8.1755    5.5040 O   0  0  0  0  0  0  0  0  0  0  0  0
    1.5061   11.8407    7.7997 O   0  0  0  0  0  0  0  0  0  0  0  0
    2.9353   10.1977    8.9606 O   0  0  0  0  0  0  0  0  0  0  0  0
   11.4623    3.0741   10.2404 C   0  0  0  0  0  0  0  0  0  0  0  0
    7.2911    1.3751    9.1544 C   0  0  0  0  0  0  0  0  0  0  0  0
   12.6964    3.4220    9.8239 F   0  0  0  0  0  0  0  0  0  0  0  0
   10.9622    4.1781   10.8169 F   0  0  0  0  0  0  0  0  0  0  0  0
   11.6213    2.1442   11.1647 F   0  0  0  0  0  0  0  0  0  0  0  0
    5.9686    1.4100    9.3835 F   0  0  0  0  0  0  0  0  0  0  0  0
    7.4386    1.5015    7.8283 F   0  0  0  0  0  0  0  0  0  0  0  0
    7.7099    0.1701    9.5103 F   0  0  0  0  0  0  0  0  0  0  0  0
   10.4072    2.5802    8.7363 S   0  0  0  0  0  0  0  0  0  0  0  0
    8.1489    2.8126   10.0476 S   0  0  0  0  0  0  0  0  0  0  0  0
    9.0885    3.4136    8.9324 N   0  0  0  0  0  0  0  0  0  0  0  0
   11.1677    3.1098    7.6384 O   0  0  0  0  0  0  0  0  0  0  0  0
   10.2285    1.1672    8.7918 O   0  0  0  0  0  0  0  0  0  0  0  0
    8.8688    2.2512   11.1451 O   0  0  0  0  0  0  0  0  0  0  0  0
    7.0782    3.7150   10.3394 O   0  0  0  0  0  0  0  0  0  0  0  0
    8.1742   11.0813    4.2556 C   0  0  0  0  0  0  0  0  0  0  0  0
    7.3422   10.2231    4.8315 C   0  0  0  0  0  0  0  0  0  0  0  0
    8.4117   12.0303    4.7061 H   0  0  0  0  0  0  0  0  0  0  0  0
    8.6459   10.8727    3.3091 H   0  0  0  0  0  0  0  0  0  0  0  0
    6.9237    8.9385    4.2736 C   0  0  0  0  0  0  0  0  0  0  0  0
    6.8780   10.4522    5.7826 H   0  0  0  0  0  0  0  0  0  0  0  0
    6.6214    7.8790    5.1261 C   0  0  0  0  0  0  0  0  0  0  0  0
    6.0776    6.7098    4.6325 C   0  0  0  0  0  0  0  0  0  0  0  0
    5.8228    6.5660    3.2749 C   0  0  0  0  0  0  0  0  0  0  0  0
    6.7481    8.7618    2.9025 C   0  0  0  0  0  0  0  0  0  0  0  0
    6.2030    7.5918    2.4123 C   0  0  0  0  0  0  0  0  0  0  0  0
    6.9952    9.5639    2.2233 H   0  0  0  0  0  0  0  0  0  0  0  0
    6.0629    7.4744    1.3456 H   0  0  0  0  0  0  0  0  0  0  0  0
    5.8247    5.9206    5.3213 H   0  0  0  0  0  0  0  0  0  0  0  0
    6.7593    7.9864    6.1903 H   0  0  0  0  0  0  0  0  0  0  0  0
    5.0516    5.3855    2.7477 C   0  0  0  0  0  0  0  0  0  0  0  0
    3.5973    5.5358    2.8380 N   0  0  0  0  0  0  0  0  0  0  0  0
    5.3051    4.4762    3.2923 H   0  0  0  0  0  0  0  0  0  0  0  0
    5.2846    5.2280    1.6900 H   0  0  0  0  0  0  0  0  0  0  0  0
    3.0439    6.7963    2.4066 C   0  0  0  0  0  0  0  0  0  0  0  0
    2.9888    5.2072    4.1277 C   0  0  0  0  0  0  0  0  0  0  0  0
    1.7500    6.0925    4.1756 C   0  0  0  0  0  0  0  0  0  0  0  0
    3.6436    5.4558    4.9699 H   0  0  0  0  0  0  0  0  0  0  0  0
    2.7473    4.1434    4.1602 H   0  0  0  0  0  0  0  0  0  0  0  0
    2.2573    7.3296    3.5500 N   0  0  0  0  0  0  0  0  0  0  0  0
    1.4016    6.2691    5.1887 H   0  0  0  0  0  0  0  0  0  0  0  0
    0.9431    5.6882    3.5595 H   0  0  0  0  0  0  0  0  0  0  0  0
    2.3446    6.6266    1.5730 H   0  0  0  0  0  0  0  0  0  0  0  0
    3.8106    7.5132    2.0993 H   0  0  0  0  0  0  0  0  0  0  0  0
    1.2581    8.3437    3.1751 C   0  0  0  0  0  0  0  0  0  0  0  0
    0.6560    9.0459    4.3883 C   0  0  0  0  0  0  0  0  0  0  0  0
    0.4788    7.8609    2.5759 H   0  0  0  0  0  0  0  0  0  0  0  0
    1.7637    9.0854    2.5515 H   0  0  0  0  0  0  0  0  0  0  0  0
   -0.1719   10.2605    3.9640 C   0  0  0  0  0  0  0  0  0  0  0  0
    1.4544    9.3919    5.0487 H   0  0  0  0  0  0  0  0  0  0  0  0
    0.0192    8.3595    4.9477 H   0  0  0  0  0  0  0  0  0  0  0  0
   -0.7597   10.9719    5.1760 C   0  0  0  0  0  0  0  0  0  0  0  0
   -0.9757    9.9447    3.2931 H   0  0  0  0  0  0  0  0  0  0  0  0
    0.4684   10.9542    3.4161 H   0  0  0  0  0  0  0  0  0  0  0  0
    0.0270   11.2651    5.8673 H   0  0  0  0  0  0  0  0  0  0  0  0
   -1.4519   10.3199    5.7028 H   0  0  0  0  0  0  0  0  0  0  0  0
   -1.2993   11.8622    4.8641 H   0  0  0  0  0  0  0  0  0  0  0  0
    2.9130    7.7589    4.2648 H   0  0  0  0  0  0  0  0  0  0  0  0
    5.1372    4.2937    7.2919 C   0  0  0  0  0  0  0  0  0  0  0  0
    5.7605    5.2623    7.9522 C   0  0  0  0  0  0  0  0  0  0  0  0
    4.0795    4.1305    7.4075 H   0  0  0  0  0  0  0  0  0  0  0  0
    5.6635    3.5949    6.6631 H   0  0  0  0  0  0  0  0  0  0  0  0
    7.1910    5.5319    7.9026 C   0  0  0  0  0  0  0  0  0  0  0  0
    5.2011    5.8956    8.6268 H   0  0  0  0  0  0  0  0  0  0  0  0
    8.0127    5.0953    6.8647 C   0  0  0  0  0  0  0  0  0  0  0  0
    9.3750    5.3112    6.8970 C   0  0  0  0  0  0  0  0  0  0  0  0
    9.9651    5.9533    7.9785 C   0  0  0  0  0  0  0  0  0  0  0  0
    7.7767    6.2129    8.9677 C   0  0  0  0  0  0  0  0  0  0  0  0
    9.1440    6.4203    9.0065 C   0  0  0  0  0  0  0  0  0  0  0  0
    7.1598    6.5160    9.7991 H   0  0  0  0  0  0  0  0  0  0  0  0
    9.5860    6.8543    9.8945 H   0  0  0  0  0  0  0  0  0  0  0  0
    9.9973    4.9023    6.1172 H   0  0  0  0  0  0  0  0  0  0  0  0
    7.5963    4.5394    6.0400 H   0  0  0  0  0  0  0  0  0  0  0  0
   11.4580    6.1461    8.0335 C   0  0  0  0  0  0  0  0  0  0  0  0
   11.9233    7.4143    7.4530 N   0  0  0  0  0  0  0  0  0  0  0  0
   11.9448    5.3277    7.5027 H   0  0  0  0  0  0  0  0  0  0  0  0
   11.8061    6.1236    9.0669 H   0  0  0  0  0  0  0  0  0  0  0  0
   11.4388    8.5707    8.0969 C   0  0  0  0  0  0  0  0  0  0  0  0
   11.5755    7.6190    6.0617 C   0  0  0  0  0  0  0  0  0  0  0  0
   10.2308    8.3953    6.0705 C   0  0  0  0  0  0  0  0  0  0  0  0
   11.5033    6.6670    5.5437 H   0  0  0  0  0  0  0  0  0  0  0  0
   12.3572    8.2201    5.5892 H   0  0  0  0  0  0  0  0  0  0  0  0
   10.0597    8.8334    7.4786 N   0  0  0  0  0  0  0  0  0  0  0  0
    9.3958    7.7619    5.7738 H   0  0  0  0  0  0  0  0  0  0  0  0
   10.2675    9.2685    5.4196 H   0  0  0  0  0  0  0  0  0  0  0  0
   12.0600    9.4389    7.8481 H   0  0  0  0  0  0  0  0  0  0  0  0
   11.3685    8.4554    9.1765 H   0  0  0  0  0  0  0  0  0  0  0  0
    9.5520   10.2074    7.6547 C   0  0  0  0  0  0  0  0  0  0  0  0
    8.9023   10.4131    9.0204 C   0  0  0  0  0  0  0  0  0  0  0  0
    8.8062   10.3986    6.8807 H   0  0  0  0  0  0  0  0  0  0  0  0
   10.3916   10.8931    7.5072 H   0  0  0  0  0  0  0  0  0  0  0  0
    7.4954    9.8159    9.0788 C   0  0  0  0  0  0  0  0  0  0  0  0
    8.8352   11.4862    9.2055 H   0  0  0  0  0  0  0  0  0  0  0  0
    9.5270    9.9880    9.8083 H   0  0  0  0  0  0  0  0  0  0  0  0
    6.8453   10.0154   10.4412 C   0  0  0  0  0  0  0  0  0  0  0  0
    7.5198    8.7478    8.8558 H   0  0  0  0  0  0  0  0  0  0  0  0
    6.8668   10.2835    8.3217 H   0  0  0  0  0  0  0  0  0  0  0  0
    6.8242   11.0699   10.7062 H   0  0  0  0  0  0  0  0  0  0  0  0
    7.3846    9.4716   11.2139 H   0  0  0  0  0  0  0  0  0  0  0  0
    5.8212    9.6556   10.4073 H   0  0  0  0  0  0  0  0  0  0  0  0
    9.4279    8.1479    7.9527 H   0  0  0  0  0  0  0  0  0  0  0  0
  1  3  1  0  0  0  0
  1  4  1  0  0  0  0
  1  5  1  0  0  0  0
  2  6  1  0  0  0  0
  2  7  1  0  0  0  0
  2  8  1  0  0  0  0
  1  9  1  0  0  0  0
  2 10  1  0  0  0  0
  9 11  1  0  0  0  0
 10 11  1  0  0  0  0
  9 12  2  0  0  0  0
  9 13  2  0  0  0  0
 10 14  2  0  0  0  0
 10 15  2  0  0  0  0
 16 18  1  0  0  0  0
 16 19  1  0  0  0  0
 16 20  1  0  0  0  0
 17 21  1  0  0  0  0
 17 22  1  0  0  0  0
 17 23  1  0  0  0  0
 16 24  1  0  0  0  0
 17 25  1  0  0  0  0
 24 26  1  0  0  0  0
 25 26  1  0  0  0  0
 24 27  2  0  0  0  0
 24 28  2  0  0  0  0
 25 29  2  0  0  0  0
 25 30  2  0  0  0  0
 31 32  2  0  0  0  0
 31 33  1  0  0  0  0
 31 34  1  0  0  0  0
 32 35  1  0  0  0  0
 32 36  1  0  0  0  0
 35 37  4  0  0  0  0
 37 38  4  0  0  0  0
 38 39  4  0  0  0  0
 35 40  4  0  0  0  0
 39 41  4  0  0  0  0
 40 41  4  0  0  0  0
 40 42  1  0  0  0  0
 41 43  1  0  0  0  0
 38 44  1  0  0  0  0
 37 45  1  0  0  0  0
 39 46  1  0  0  0  0
 46 47  1  0  0  0  0
 46 48  1  0  0  0  0
 46 49  1  0  0  0  0
 47 50  1  0  0  0  0
 47 51  1  0  0  0  0
 51 52  1  0  0  0  0
 51 53  1  0  0  0  0
 51 54  1  0  0  0  0
 50 55  1  0  0  0  0
 52 55  1  0  0  0  0
 52 56  1  0  0  0  0
 52 57  1  0  0  0  0
 50 58  1  0  0  0  0
 50 59  1  0  0  0  0
 55 60  1  0  0  0  0
 60 61  1  0  0  0  0
 60 62  1  0  0  0  0
 60 63  1  0  0  0  0
 61 64  1  0  0  0  0
 61 65  1  0  0  0  0
 61 66  1  0  0  0  0
 64 67  1  0  0  0  0
 64 68  1  0  0  0  0
 64 69  1  0  0  0  0
 67 70  1  0  0  0  0
 67 71  1  0  0  0  0
 67 72  1  0  0  0  0
 55 73  1  0  0  0  0
 74 75  2  0  0  0  0
 74 76  1  0  0  0  0
 74 77  1  0  0  0  0
 75 78  1  0  0  0  0
 75 79  1  0  0  0  0
 78 80  4  0  0  0  0
 80 81  4  0  0  0  0
 81 82  4  0  0  0  0
 78 83  4  0  0  0  0
 82 84  4  0  0  0  0
 83 84  4  0  0  0  0
 83 85  1  0  0  0  0
 84 86  1  0  0  0  0
 81 87  1  0  0  0  0
 80 88  1  0  0  0  0
 82 89  1  0  0  0  0
 89 90  1  0  0  0  0
 89 91  1  0  0  0  0
 89 92  1  0  0  0  0
 90 93  1  0  0  0  0
 90 94  1  0  0  0  0
 94 95  1  0  0  0  0
 94 96  1  0  0  0  0
 94 97  1  0  0  0  0
 93 98  1  0  0  0  0
 95 98  1  0  0  0  0
 95 99  1  0  0  0  0
 95100  1  0  0  0  0
 93101  1  0  0  0  0
 93102  1  0  0  0  0
 98103  1  0  0  0  0
103104  1  0  0  0  0
103105  1  0  0  0  0
103106  1  0  0  0  0
104107  1  0  0  0  0
104108  1  0  0  0  0
104109  1  0  0  0  0
107110  1  0  0  0  0
107111  1  0  0  0  0
107112  1  0  0  0  0
110113  1  0  0  0  0
110114  1  0  0  0  0
110115  1  0  0  0  0
 98116  1  0  0  0  0
M  END
