 xtb: 6.7.1 (edcfbbe)
          10212513473D

116116  0     0  0            999 V2000
    7.9243    9.2343    4.8554 C   0  0  0  0  0  0  0  0  0  0  0  0
    4.2723   11.0118    3.7063 C   0  0  0  0  0  0  0  0  0  0  0  0
    7.4386   10.4779    4.8605 F   0  0  0  0  0  0  0  0  0  0  0  0
    8.7074    9.1519    5.9464 F   0  0  0  0  0  0  0  0  0  0  0  0
    8.7006    9.0806    3.7981 F   0  0  0  0  0  0  0  0  0  0  0  0
    3.0472   10.8875    4.2167 F   0  0  0  0  0  0  0  0  0  0  0  0
    4.9985   11.7137    4.5739 F   0  0  0  0  0  0  0  0  0  0  0  0
    4.1713   11.7275    2.5846 F   0  0  0  0  0  0  0  0  0  0  0  0
    6.5185    7.9584    4.9998 S   0  0  0  0  0  0  0  0  0  0  0  0
    4.9887    9.2993    3.3607 S   0  0  0  0  0  0  0  0  0  0  0  0
    5.2128    8.8105    4.8537 N   0  0  0  0  0  0  0  0  0  0  0  0
    6.7524    6.9962    3.9774 O   0  0  0  0  0  0  0  0  0  0  0  0
    6.6411    7.5387    6.3735 O   0  0  0  0  0  0  0  0  0  0  0  0
    6.2342    9.4775    2.6811 O   0  0  0  0  0  0  0  0  0  0  0  0
    3.9397    8.6491    2.6442 O   0  0  0  0  0  0  0  0  0  0  0  0
    8.9340    5.4861    4.5770 C   0  0  0  0  0  0  0  0  0  0  0  0
    6.2613    1.4415    4.6722 C   0  0  0  0  0  0  0  0  0  0  0  0
   10.0720    4.7924    4.7124 F   0  0  0  0  0  0  0  0  0  0  0  0
    8.7077    5.5578    3.2650 F   0  0  0  0  0  0  0  0  0  0  0  0
    9.1960    6.7217    5.0139 F   0  0  0  0  0  0  0  0  0  0  0  0
    5.6080    1.8563    5.7547 F   0  0  0  0  0  0  0  0  0  0  0  0
    5.4141    1.5208    3.6345 F   0  0  0  0  0  0  0  0  0  0  0  0
    6.5521    0.1526    4.8459 F   0  0  0  0  0  0  0  0  0  0  0  0
    7.7471    4.6410    5.7926 S   0  0  0  0  0  0  0  0  0  0  0  0
    7.8096    2.4756    4.3078 S   0  0  0  0  0  0  0  0  0  0  0  0
    8.2170    3.1302    5.6617 N   0  0  0  0  0  0  0  0  0  0  0  0
    8.2060    5.1825    7.0334 O   0  0  0  0  0  0  0  0  0  0  0  0
    6.3625    4.8086    5.4829 O   0  0  0  0  0  0  0  0  0  0  0  0
    7.3167    3.4349    3.3458 O   0  0  0  0  0  0  0  0  0  0  0  0
    8.7383    1.5232    3.7950 O   0  0  0  0  0  0  0  0  0  0  0  0
    0.4196   11.7159    7.7895 C   0  0  0  0  0  0  0  0  0  0  0  0
    1.4714   12.4355    8.1589 C   0  0  0  0  0  0  0  0  0  0  0  0
   -0.5746   12.1302    7.7875 H   0  0  0  0  0  0  0  0  0  0  0  0
    0.5084   10.6903    7.4796 H   0  0  0  0  0  0  0  0  0  0  0  0
    2.8501   11.9587    8.2096 C   0  0  0  0  0  0  0  0  0  0  0  0
    1.3295   13.4572    8.4901 H   0  0  0  0  0  0  0  0  0  0  0  0
    3.7615   12.6045    9.0461 C   0  0  0  0  0  0  0  0  0  0  0  0
    5.0640   12.1601    9.1517 C   0  0  0  0  0  0  0  0  0  0  0  0
    5.5051   11.0667    8.4116 C   0  0  0  0  0  0  0  0  0  0  0  0
    3.3040   10.8830    7.4462 C   0  0  0  0  0  0  0  0  0  0  0  0
    4.6137   10.4462    7.5409 C   0  0  0  0  0  0  0  0  0  0  0  0
    2.6401   10.4018    6.7454 H   0  0  0  0  0  0  0  0  0  0  0  0
    4.9483    9.6415    6.8995 H   0  0  0  0  0  0  0  0  0  0  0  0
    5.7537   12.6685    9.8110 H   0  0  0  0  0  0  0  0  0  0  0  0
    3.4371   13.4572    9.6253 H   0  0  0  0  0  0  0  0  0  0  0  0
    6.9126   10.5592    8.5801 C   0  0  0  0  0  0  0  0  0  0  0  0
    7.0826    9.5565    9.6522 N   0  0  0  0  0  0  0  0  0  0  0  0
    7.5674   11.3998    8.8361 H   0  0  0  0  0  0  0  0  0  0  0  0
    7.2551   10.1331    7.6374 H   0  0  0  0  0  0  0  0  0  0  0  0
    7.5443    8.2705    9.2663 C   0  0  0  0  0  0  0  0  0  0  0  0
    5.9294    9.2560   10.4696 C   0  0  0  0  0  0  0  0  0  0  0  0
    5.2099    8.1081    9.7247 C   0  0  0  0  0  0  0  0  0  0  0  0
    5.2959   10.1279   10.6119 H   0  0  0  0  0  0  0  0  0  0  0  0
    6.2825    8.9126   11.4471 H   0  0  0  0  0  0  0  0  0  0  0  0
    6.3008    7.4301    8.9877 N   0  0  0  0  0  0  0  0  0  0  0  0
    4.4719    8.5108    9.0309 H   0  0  0  0  0  0  0  0  0  0  0  0
    4.7273    7.4165   10.4128 H   0  0  0  0  0  0  0  0  0  0  0  0
    8.0621    7.7992   10.1089 H   0  0  0  0  0  0  0  0  0  0  0  0
    8.1874    8.2776    8.3877 H   0  0  0  0  0  0  0  0  0  0  0  0
    6.4568    6.0019    9.3140 C   0  0  0  0  0  0  0  0  0  0  0  0
    5.3214    5.1849    8.7102 C   0  0  0  0  0  0  0  0  0  0  0  0
    6.4968    5.8931   10.4021 H   0  0  0  0  0  0  0  0  0  0  0  0
    7.3904    5.6574    8.8653 H   0  0  0  0  0  0  0  0  0  0  0  0
    5.4601    3.7024    9.0544 C   0  0  0  0  0  0  0  0  0  0  0  0
    5.3660    5.2919    7.6250 H   0  0  0  0  0  0  0  0  0  0  0  0
    4.3504    5.5455    9.0586 H   0  0  0  0  0  0  0  0  0  0  0  0
    4.2988    2.9062    8.4764 C   0  0  0  0  0  0  0  0  0  0  0  0
    5.4904    3.5755   10.1400 H   0  0  0  0  0  0  0  0  0  0  0  0
    6.3996    3.3369    8.6376 H   0  0  0  0  0  0  0  0  0  0  0  0
    4.2441    3.0620    7.4030 H   0  0  0  0  0  0  0  0  0  0  0  0
    3.3558    3.2199    8.9204 H   0  0  0  0  0  0  0  0  0  0  0  0
    4.4305    1.8442    8.6616 H   0  0  0  0  0  0  0  0  0  0  0  0
    6.1766    7.4688    7.9517 H   0  0  0  0  0  0  0  0  0  0  0  0
    0.0072    9.5929    4.6618 C   0  0  0  0  0  0  0  0  0  0  0  0
    0.7089    8.6840    5.3255 C   0  0  0  0  0  0  0  0  0  0  0  0
   -0.5958   10.3290    5.1661 H   0  0  0  0  0  0  0  0  0  0  0  0
    0.0320    9.6507    3.5877 H   0  0  0  0  0  0  0  0  0  0  0  0
    1.5614    7.6681    4.7179 C   0  0  0  0  0  0  0  0  0  0  0  0
    0.6922    8.6746    6.4105 H   0  0  0  0  0  0  0  0  0  0  0  0
    1.3041    7.1546    3.4490 C   0  0  0  0  0  0  0  0  0  0  0  0
    2.1358    6.2064    2.8902 C   0  0  0  0  0  0  0  0  0  0  0  0
    3.2630    5.7684    3.5740 C   0  0  0  0  0  0  0  0  0  0  0  0
    2.6649    7.1837    5.4204 C   0  0  0  0  0  0  0  0  0  0  0  0
    3.5166    6.2609    4.8485 C   0  0  0  0  0  0  0  0  0  0  0  0
    2.8769    7.5660    6.4097 H   0  0  0  0  0  0  0  0  0  0  0  0
    4.3958    5.9201    5.3763 H   0  0  0  0  0  0  0  0  0  0  0  0
    1.9252    5.8083    1.9089 H   0  0  0  0  0  0  0  0  0  0  0  0
    0.4359    7.4941    2.9035 H   0  0  0  0  0  0  0  0  0  0  0  0
    4.2096    4.7601    2.9884 C   0  0  0  0  0  0  0  0  0  0  0  0
    4.2868    4.8346    1.5258 N   0  0  0  0  0  0  0  0  0  0  0  0
    3.8446    3.7528    3.2239 H   0  0  0  0  0  0  0  0  0  0  0  0
    5.1853    4.8884    3.4716 H   0  0  0  0  0  0  0  0  0  0  0  0
    5.2273    3.9289    0.9757 C   0  0  0  0  0  0  0  0  0  0  0  0
    4.7186    6.1159    0.9994 C   0  0  0  0  0  0  0  0  0  0  0  0
    6.2590    6.0694    1.0406 C   0  0  0  0  0  0  0  0  0  0  0  0
    4.3177    6.9454    1.5781 H   0  0  0  0  0  0  0  0  0  0  0  0
    4.3601    6.1947   -0.0319 H   0  0  0  0  0  0  0  0  0  0  0  0
    6.5860    4.6144    1.0628 N   0  0  0  0  0  0  0  0  0  0  0  0
    6.6324    6.5506    1.9434 H   0  0  0  0  0  0  0  0  0  0  0  0
    6.7007    6.5446    0.1661 H   0  0  0  0  0  0  0  0  0  0  0  0
    5.0174    3.7694   -0.0886 H   0  0  0  0  0  0  0  0  0  0  0  0
    5.2409    2.9810    1.5103 H   0  0  0  0  0  0  0  0  0  0  0  0
    7.5874    4.1994    0.0629 C   0  0  0  0  0  0  0  0  0  0  0  0
    8.3040    2.8914    0.3994 C   0  0  0  0  0  0  0  0  0  0  0  0
    8.3414    4.9883    0.0207 H   0  0  0  0  0  0  0  0  0  0  0  0
    7.0946    4.1333   -0.9133 H   0  0  0  0  0  0  0  0  0  0  0  0
    7.4907    1.6144    0.1990 C   0  0  0  0  0  0  0  0  0  0  0  0
    8.6463    2.9283    1.4341 H   0  0  0  0  0  0  0  0  0  0  0  0
    9.1888    2.8346   -0.2387 H   0  0  0  0  0  0  0  0  0  0  0  0
    8.3479    0.3890    0.4983 C   0  0  0  0  0  0  0  0  0  0  0  0
    7.1170    1.5669   -0.8279 H   0  0  0  0  0  0  0  0  0  0  0  0
    6.6377    1.6008    0.8756 H   0  0  0  0  0  0  0  0  0  0  0  0
    7.7664   -0.5209    0.3707 H   0  0  0  0  0  0  0  0  0  0  0  0
    8.7040    0.4335    1.5251 H   0  0  0  0  0  0  0  0  0  0  0  0
    9.2063    0.3447   -0.1682 H   0  0  0  0  0  0  0  0  0  0  0  0
    6.9603    4.3608    1.9975 H   0  0  0  0  0  0  0  0  0  0  0  0
  1  3  1  0  0  0  0
  1  4  1  0  0  0  0
  1  5  1  0  0  0  0
  2  6  1  0  0  0  0
  2  7  1  0  0  0  0
  2  8  1  0  0  0  0
  1  9  1  0  0  0  0
  2 10  1  0  0  0  0
  9 11  1  0  0  0  0
 10 11  1  0  0  0  0
  9 12  2  0  0  0  0
  9 13  2  0  0  0  0
 10 14  2  0  0  0  0
 10 15  2  0  0  0  0
 16 18  1  0  0  0  0
 16 19  1  0  0  0  0
 16 20  1  0  0  0  0
 17 21  1  0  0  0  0
 17 22  1  0  0  0  0
 17 23  1  0  0  0  0
 16 24  1  0  0  0  0
 17 25  1  0  0  0  0
 24 26  1  0  0  0  0
 25 26  1  0  0  0  0
 24 27  2  0  0  0  0
 24 28  2  0  0  0  0
 25 29  2  0  0  0  0
 25 30  2  0  0  0  0
 31 32  2  0  0  0  0
 31 33  1  0  0  0  0
 31 34  1  0  0  0  0
 32 35  1  0  0  0  0
 32 36  1  0  0  0  0
 35 37  4  0  0  0  0
 37 38  4  0  0  0  0
 38 39  4  0  0  0  0
 35 40  4  0  0  0  0
 39 41  4  0  0  0  0
 40 41  4  0  0  0  0
 40 42  1  0  0  0  0
 41 43  1  0  0  0  0
 38 44  1  0  0  0  0
 37 45  1  0  0  0  0
 39 46  1  0  0  0  0
 46 47  1  0  0  0  0
 46 48  1  0  0  0  0
 46 49  1  0  0  0  0
 47 50  1  0  0  0  0
 47 51  1  0  0  0  0
 51 52  1  0  0  0  0
 51 53  1  0  0  0  0
 51 54  1  0  0  0  0
 50 55  1  0  0  0  0
 52 55  1  0  0  0  0
 52 56  1  0  0  0  0
 52 57  1  0  0  0  0
 50 58  1  0  0  0  0
 50 59  1  0  0  0  0
 55 60  1  0  0  0  0
 60 61  1  0  0  0  0
 60 62  1  0  0  0  0
 60 63  1  0  0  0  0
 61 64  1  0  0  0  0
 61 65  1  0  0  0  0
 61 66  1  0  0  0  0
 64 67  1  0  0  0  0
 64 68  1  0  0  0  0
 64 69  1  0  0  0  0
 67 70  1  0  0  0  0
 67 71  1  0  0  0  0
 67 72  1  0  0  0  0
 55 73  1  0  0  0  0
 74 75  2  0  0  0  0
 74 76  1  0  0  0  0
 74 77  1  0  0  0  0
 75 78  1  0  0  0  0
 75 79  1  0  0  0  0
 78 80  4  0  0  0  0
 80 81  4  0  0  0  0
 81 82  4  0  0  0  0
 78 83  4  0  0  0  0
 82 84  4  0  0  0  0
 83 84  4  0  0  0  0
 83 85  1  0  0  0  0
 84 86  1  0  0  0  0
 81 87  1  0  0  0  0
 80 88  1  0  0  0  0
 82 89  1  0  0  0  0
 89 90  1  0  0  0  0
 89 91  1  0  0  0  0
 89 92  1  0  0  0  0
 90 93  1  0  0  0  0
 90 94  1  0  0  0  0
 94 95  1  0  0  0  0
 94 96  1  0  0  0  0
 94 97  1  0  0  0  0
 93 98  1  0  0  0  0
 95 98  1  0  0  0  0
 95 99  1  0  0  0  0
 95100  1  0  0  0  0
 93101  1  0  0  0  0
 93102  1  0  0  0  0
 98103  1  0  0  0  0
103104  1  0  0  0  0
103105  1  0  0  0  0
103106  1  0  0  0  0
104107  1  0  0  0  0
104108  1  0  0  0  0
104109  1  0  0  0  0
107110  1  0  0  0  0
107111  1  0  0  0  0
107112  1  0  0  0  0
110113  1  0  0  0  0
110114  1  0  0  0  0
110115  1  0  0  0  0
 98116  1  0  0  0  0
M  END
