 xtb: 6.7.1 (edcfbbe)
          10212513453D

116116  0     0  0            999 V2000
    4.9094    4.4167    4.3813 C   0  0  0  0  0  0  0  0  0  0  0  0
    5.2681   -0.0898    5.3201 C   0  0  0  0  0  0  0  0  0  0  0  0
    5.9923    5.0063    3.9043 F   0  0  0  0  0  0  0  0  0  0  0  0
    4.7031    3.3225    3.6337 F   0  0  0  0  0  0  0  0  0  0  0  0
    3.8386    5.1934    4.1821 F   0  0  0  0  0  0  0  0  0  0  0  0
    6.2386   -0.9961    5.1523 F   0  0  0  0  0  0  0  0  0  0  0  0
    4.3622   -0.6173    6.1426 F   0  0  0  0  0  0  0  0  0  0  0  0
    4.6866    0.1022    4.1409 F   0  0  0  0  0  0  0  0  0  0  0  0
    4.9468    3.8892    6.2026 S   0  0  0  0  0  0  0  0  0  0  0  0
    5.9602    1.5107    6.0159 S   0  0  0  0  0  0  0  0  0  0  0  0
    4.6333    2.3466    6.0727 N   0  0  0  0  0  0  0  0  0  0  0  0
    6.2428    4.0826    6.7630 O   0  0  0  0  0  0  0  0  0  0  0  0
    3.7915    4.5317    6.7644 O   0  0  0  0  0  0  0  0  0  0  0  0
    6.9196    1.9610    5.0445 O   0  0  0  0  0  0  0  0  0  0  0  0
    6.5257    1.1252    7.2775 O   0  0  0  0  0  0  0  0  0  0  0  0
    7.4816    7.4675    2.0101 C   0  0  0  0  0  0  0  0  0  0  0  0
    5.6938    9.1516    6.1638 C   0  0  0  0  0  0  0  0  0  0  0  0
    8.2444    6.3723    2.0913 F   0  0  0  0  0  0  0  0  0  0  0  0
    6.2358    7.0721    1.7615 F   0  0  0  0  0  0  0  0  0  0  0  0
    7.9017    8.1618    0.9464 F   0  0  0  0  0  0  0  0  0  0  0  0
    4.8344   10.0668    5.7173 F   0  0  0  0  0  0  0  0  0  0  0  0
    5.3061    8.8783    7.4294 F   0  0  0  0  0  0  0  0  0  0  0  0
    6.8969    9.7049    6.2588 F   0  0  0  0  0  0  0  0  0  0  0  0
    7.6612    8.4489    3.6093 S   0  0  0  0  0  0  0  0  0  0  0  0
    5.6771    7.5544    5.1140 S   0  0  0  0  0  0  0  0  0  0  0  0
    7.1582    7.3947    4.6743 N   0  0  0  0  0  0  0  0  0  0  0  0
    9.0687    8.6650    3.6942 O   0  0  0  0  0  0  0  0  0  0  0  0
    6.8019    9.5863    3.5190 O   0  0  0  0  0  0  0  0  0  0  0  0
    4.6908    7.8048    4.1129 O   0  0  0  0  0  0  0  0  0  0  0  0
    5.2992    6.5434    6.0752 O   0  0  0  0  0  0  0  0  0  0  0  0
    4.6812    0.3709   10.3008 C   0  0  0  0  0  0  0  0  0  0  0  0
    3.9677    1.2938   10.9350 C   0  0  0  0  0  0  0  0  0  0  0  0
    4.6916   -0.6528   10.6364 H   0  0  0  0  0  0  0  0  0  0  0  0
    5.2584    0.5907    9.4170 H   0  0  0  0  0  0  0  0  0  0  0  0
    3.8783    2.6962   10.5408 C   0  0  0  0  0  0  0  0  0  0  0  0
    3.3665    1.0162   11.7938 H   0  0  0  0  0  0  0  0  0  0  0  0
    4.8688    3.3079    9.7712 C   0  0  0  0  0  0  0  0  0  0  0  0
    4.7282    4.6141    9.3548 C   0  0  0  0  0  0  0  0  0  0  0  0
    3.5830    5.3421    9.6598 C   0  0  0  0  0  0  0  0  0  0  0  0
    2.7788    3.4619   10.9280 C   0  0  0  0  0  0  0  0  0  0  0  0
    2.6263    4.7642   10.4862 C   0  0  0  0  0  0  0  0  0  0  0  0
    2.0198    3.0210   11.5590 H   0  0  0  0  0  0  0  0  0  0  0  0
    1.7547    5.3340   10.7752 H   0  0  0  0  0  0  0  0  0  0  0  0
    5.4905    5.0675    8.7442 H   0  0  0  0  0  0  0  0  0  0  0  0
    5.7432    2.7491    9.4799 H   0  0  0  0  0  0  0  0  0  0  0  0
    3.4318    6.7083    9.0525 C   0  0  0  0  0  0  0  0  0  0  0  0
    2.0557    7.0497    8.6591 N   0  0  0  0  0  0  0  0  0  0  0  0
    4.1142    6.7594    8.1968 H   0  0  0  0  0  0  0  0  0  0  0  0
    3.7283    7.4736    9.7781 H   0  0  0  0  0  0  0  0  0  0  0  0
    1.3351    6.0578    7.9440 C   0  0  0  0  0  0  0  0  0  0  0  0
    2.0177    8.1883    7.7588 C   0  0  0  0  0  0  0  0  0  0  0  0
    2.1796    7.5932    6.3397 C   0  0  0  0  0  0  0  0  0  0  0  0
    2.7962    8.9062    8.0000 H   0  0  0  0  0  0  0  0  0  0  0  0
    1.0430    8.6755    7.8602 H   0  0  0  0  0  0  0  0  0  0  0  0
    1.7576    6.1762    6.4902 N   0  0  0  0  0  0  0  0  0  0  0  0
    3.2087    7.6283    5.9890 H   0  0  0  0  0  0  0  0  0  0  0  0
    1.5502    8.1040    5.6129 H   0  0  0  0  0  0  0  0  0  0  0  0
    0.2643    6.2887    7.9919 H   0  0  0  0  0  0  0  0  0  0  0  0
    1.5371    5.0545    8.3117 H   0  0  0  0  0  0  0  0  0  0  0  0
    0.7462    5.7567    5.5047 C   0  0  0  0  0  0  0  0  0  0  0  0
    0.1797    4.3545    5.7255 C   0  0  0  0  0  0  0  0  0  0  0  0
    1.2091    5.8160    4.5178 H   0  0  0  0  0  0  0  0  0  0  0  0
   -0.0761    6.4795    5.5524 H   0  0  0  0  0  0  0  0  0  0  0  0
    1.1758    3.2023    5.5015 C   0  0  0  0  0  0  0  0  0  0  0  0
   -0.6525    4.2547    5.0261 H   0  0  0  0  0  0  0  0  0  0  0  0
   -0.2412    4.2808    6.7285 H   0  0  0  0  0  0  0  0  0  0  0  0
    1.4490    2.3966    6.7667 C   0  0  0  0  0  0  0  0  0  0  0  0
    2.1257    3.5849    5.1348 H   0  0  0  0  0  0  0  0  0  0  0  0
    0.7815    2.5288    4.7397 H   0  0  0  0  0  0  0  0  0  0  0  0
    2.1130    1.5694    6.5350 H   0  0  0  0  0  0  0  0  0  0  0  0
    0.5246    2.0035    7.1850 H   0  0  0  0  0  0  0  0  0  0  0  0
    1.9562    3.0036    7.5106 H   0  0  0  0  0  0  0  0  0  0  0  0
    2.6029    5.5632    6.4141 H   0  0  0  0  0  0  0  0  0  0  0  0
    9.9169    9.1761    6.9273 C   0  0  0  0  0  0  0  0  0  0  0  0
    9.4067    7.9608    7.0745 C   0  0  0  0  0  0  0  0  0  0  0  0
    9.6728    9.9739    7.6072 H   0  0  0  0  0  0  0  0  0  0  0  0
   10.5525    9.4282    6.0973 H   0  0  0  0  0  0  0  0  0  0  0  0
    9.6462    6.8356    6.1805 C   0  0  0  0  0  0  0  0  0  0  0  0
    8.7147    7.7592    7.8837 H   0  0  0  0  0  0  0  0  0  0  0  0
   10.7670    6.7503    5.3572 C   0  0  0  0  0  0  0  0  0  0  0  0
   10.9545    5.6619    4.5260 C   0  0  0  0  0  0  0  0  0  0  0  0
   10.0189    4.6358    4.4762 C   0  0  0  0  0  0  0  0  0  0  0  0
    8.6988    5.8135    6.1171 C   0  0  0  0  0  0  0  0  0  0  0  0
    8.8746    4.7361    5.2677 C   0  0  0  0  0  0  0  0  0  0  0  0
    7.7950    5.8631    6.7018 H   0  0  0  0  0  0  0  0  0  0  0  0
    8.0775    4.0107    5.1755 H   0  0  0  0  0  0  0  0  0  0  0  0
   11.8278    5.6218    3.8900 H   0  0  0  0  0  0  0  0  0  0  0  0
   11.4992    7.5411    5.3697 H   0  0  0  0  0  0  0  0  0  0  0  0
   10.2625    3.3869    3.6693 C   0  0  0  0  0  0  0  0  0  0  0  0
   10.8037    2.2709    4.4584 N   0  0  0  0  0  0  0  0  0  0  0  0
   10.9816    3.5806    2.8704 H   0  0  0  0  0  0  0  0  0  0  0  0
    9.3315    3.0383    3.2226 H   0  0  0  0  0  0  0  0  0  0  0  0
    9.9088    1.6533    5.3666 C   0  0  0  0  0  0  0  0  0  0  0  0
   11.9585    2.5906    5.2731 C   0  0  0  0  0  0  0  0  0  0  0  0
   11.4058    2.9263    6.6834 C   0  0  0  0  0  0  0  0  0  0  0  0
   12.5203    3.4163    4.8443 H   0  0  0  0  0  0  0  0  0  0  0  0
   12.6053    1.7101    5.3202 H   0  0  0  0  0  0  0  0  0  0  0  0
    9.9958    2.4750    6.6475 N   0  0  0  0  0  0  0  0  0  0  0  0
   11.4549    3.9948    6.8872 H   0  0  0  0  0  0  0  0  0  0  0  0
   11.9452    2.3818    7.4578 H   0  0  0  0  0  0  0  0  0  0  0  0
   10.2642    0.6466    5.6146 H   0  0  0  0  0  0  0  0  0  0  0  0
    8.8778    1.6162    5.0125 H   0  0  0  0  0  0  0  0  0  0  0  0
    9.5090    1.7738    7.8468 C   0  0  0  0  0  0  0  0  0  0  0  0
    9.5452    2.6444    9.1005 C   0  0  0  0  0  0  0  0  0  0  0  0
   10.1211    0.8780    7.9893 H   0  0  0  0  0  0  0  0  0  0  0  0
    8.4750    1.4713    7.6544 H   0  0  0  0  0  0  0  0  0  0  0  0
    8.7652    3.9506    8.9425 C   0  0  0  0  0  0  0  0  0  0  0  0
   10.5754    2.8627    9.3940 H   0  0  0  0  0  0  0  0  0  0  0  0
    9.0953    2.0578    9.9028 H   0  0  0  0  0  0  0  0  0  0  0  0
    8.4615    4.5831   10.2964 C   0  0  0  0  0  0  0  0  0  0  0  0
    7.8301    3.7595    8.4131 H   0  0  0  0  0  0  0  0  0  0  0  0
    9.3455    4.6633    8.3514 H   0  0  0  0  0  0  0  0  0  0  0  0
    7.9279    5.5191   10.1597 H   0  0  0  0  0  0  0  0  0  0  0  0
    9.3810    4.7869   10.8427 H   0  0  0  0  0  0  0  0  0  0  0  0
    7.8394    3.9254   10.8982 H   0  0  0  0  0  0  0  0  0  0  0  0
    9.3882    3.3053    6.4680 H   0  0  0  0  0  0  0  0  0  0  0  0
  1  3  1  0  0  0  0
  1  4  1  0  0  0  0
  1  5  1  0  0  0  0
  2  6  1  0  0  0  0
  2  7  1  0  0  0  0
  2  8  1  0  0  0  0
  1  9  1  0  0  0  0
  2 10  1  0  0  0  0
  9 11  1  0  0  0  0
 10 11  1  0  0  0  0
  9 12  2  0  0  0  0
  9 13  2  0  0  0  0
 10 14  2  0  0  0  0
 10 15  2  0  0  0  0
 16 18  1  0  0  0  0
 16 19  1  0  0  0  0
 16 20  1  0  0  0  0
 17 21  1  0  0  0  0
 17 22  1  0  0  0  0
 17 23  1  0  0  0  0
 16 24  1  0  0  0  0
 17 25  1  0  0  0  0
 24 26  1  0  0  0  0
 25 26  1  0  0  0  0
 24 27  2  0  0  0  0
 24 28  2  0  0  0  0
 25 29  2  0  0  0  0
 25 30  2  0  0  0  0
 31 32  2  0  0  0  0
 31 33  1  0  0  0  0
 31 34  1  0  0  0  0
 32 35  1  0  0  0  0
 32 36  1  0  0  0  0
 35 37  4  0  0  0  0
 37 38  4  0  0  0  0
 38 39  4  0  0  0  0
 35 40  4  0  0  0  0
 39 41  4  0  0  0  0
 40 41  4  0  0  0  0
 40 42  1  0  0  0  0
 41 43  1  0  0  0  0
 38 44  1  0  0  0  0
 37 45  1  0  0  0  0
 39 46  1  0  0  0  0
 46 47  1  0  0  0  0
 46 48  1  0  0  0  0
 46 49  1  0  0  0  0
 47 50  1  0  0  0  0
 47 51  1  0  0  0  0
 51 52  1  0  0  0  0
 51 53  1  0  0  0  0
 51 54  1  0  0  0  0
 50 55  1  0  0  0  0
 52 55  1  0  0  0  0
 52 56  1  0  0  0  0
 52 57  1  0  0  0  0
 50 58  1  0  0  0  0
 50 59  1  0  0  0  0
 55 60  1  0  0  0  0
 60 61  1  0  0  0  0
 60 62  1  0  0  0  0
 60 63  1  0  0  0  0
 61 64  1  0  0  0  0
 61 65  1  0  0  0  0
 61 66  1  0  0  0  0
 64 67  1  0  0  0  0
 64 68  1  0  0  0  0
 64 69  1  0  0  0  0
 67 70  1  0  0  0  0
 67 71  1  0  0  0  0
 67 72  1  0  0  0  0
 55 73  1  0  0  0  0
 74 75  2  0  0  0  0
 74 76  1  0  0  0  0
 74 77  1  0  0  0  0
 75 78  1  0  0  0  0
 75 79  1  0  0  0  0
 78 80  4  0  0  0  0
 80 81  4  0  0  0  0
 81 82  4  0  0  0  0
 78 83  4  0  0  0  0
 82 84  4  0  0  0  0
 83 84  4  0  0  0  0
 83 85  1  0  0  0  0
 84 86  1  0  0  0  0
 81 87  1  0  0  0  0
 80 88  1  0  0  0  0
 82 89  1  0  0  0  0
 89 90  1  0  0  0  0
 89 91  1  0  0  0  0
 89 92  1  0  0  0  0
 90 93  1  0  0  0  0
 90 94  1  0  0  0  0
 94 95  1  0  0  0  0
 94 96  1  0  0  0  0
 94 97  1  0  0  0  0
 93 98  1  0  0  0  0
 95 98  1  0  0  0  0
 95 99  1  0  0  0  0
 95100  1  0  0  0  0
 93101  1  0  0  0  0
 93102  1  0  0  0  0
 98103  1  0  0  0  0
103104  1  0  0  0  0
103105  1  0  0  0  0
103106  1  0  0  0  0
104107  1  0  0  0  0
104108  1  0  0  0  0
104109  1  0  0  0  0
107110  1  0  0  0  0
107111  1  0  0  0  0
107112  1  0  0  0  0
110113  1  0  0  0  0
110114  1  0  0  0  0
110115  1  0  0  0  0
 98116  1  0  0  0  0
M  END
