 xtb: 6.7.1 (edcfbbe)
          10212513553D

116116  0     0  0            999 V2000
    0.3883    2.4973    8.7752 C   0  0  0  0  0  0  0  0  0  0  0  0
    4.1313    4.7187    8.9711 C   0  0  0  0  0  0  0  0  0  0  0  0
   -0.7970    2.5794    9.3803 F   0  0  0  0  0  0  0  0  0  0  0  0
    0.4460    3.4921    7.8844 F   0  0  0  0  0  0  0  0  0  0  0  0
    0.4014    1.3556    8.0782 F   0  0  0  0  0  0  0  0  0  0  0  0
    5.2091    5.0883    8.2267 F   0  0  0  0  0  0  0  0  0  0  0  0
    3.0621    5.0105    8.2384 F   0  0  0  0  0  0  0  0  0  0  0  0
    4.1508    5.5078   10.0377 F   0  0  0  0  0  0  0  0  0  0  0  0
    1.8242    2.5647   10.0043 S   0  0  0  0  0  0  0  0  0  0  0  0
    4.3367    2.8698    9.4040 S   0  0  0  0  0  0  0  0  0  0  0  0
    2.9925    2.2000    8.9845 N   0  0  0  0  0  0  0  0  0  0  0  0
    1.8925    3.9275   10.4261 O   0  0  0  0  0  0  0  0  0  0  0  0
    1.5064    1.5544   10.9550 O   0  0  0  0  0  0  0  0  0  0  0  0
    4.6509    2.8824   10.7977 O   0  0  0  0  0  0  0  0  0  0  0  0
    5.4235    2.4895    8.5403 O   0  0  0  0  0  0  0  0  0  0  0  0
    9.8391    5.8868    3.3334 C   0  0  0  0  0  0  0  0  0  0  0  0
    8.3364    1.6781    2.5390 C   0  0  0  0  0  0  0  0  0  0  0  0
   10.5709    4.8352    2.9710 F   0  0  0  0  0  0  0  0  0  0  0  0
    9.5049    6.5806    2.2552 F   0  0  0  0  0  0  0  0  0  0  0  0
   10.6205    6.6705    4.0873 F   0  0  0  0  0  0  0  0  0  0  0  0
    8.0234    0.9221    3.5919 F   0  0  0  0  0  0  0  0  0  0  0  0
    7.8026    1.1046    1.4583 F   0  0  0  0  0  0  0  0  0  0  0  0
    9.6576    1.6706    2.4072 F   0  0  0  0  0  0  0  0  0  0  0  0
    8.3447    5.3365    4.3484 S   0  0  0  0  0  0  0  0  0  0  0  0
    7.6485    3.4080    2.7648 S   0  0  0  0  0  0  0  0  0  0  0  0
    8.2852    3.7733    4.1610 N   0  0  0  0  0  0  0  0  0  0  0  0
    8.6987    5.6622    5.7016 O   0  0  0  0  0  0  0  0  0  0  0  0
    7.2160    6.0234    3.7981 O   0  0  0  0  0  0  0  0  0  0  0  0
    6.2255    3.1865    2.7763 O   0  0  0  0  0  0  0  0  0  0  0  0
    8.1298    4.2118    1.6891 O   0  0  0  0  0  0  0  0  0  0  0  0
    3.4982    8.6744    7.4923 C   0  0  0  0  0  0  0  0  0  0  0  0
    4.0736    8.3648    8.6476 C   0  0  0  0  0  0  0  0  0  0  0  0
    2.4441    8.8824    7.4335 H   0  0  0  0  0  0  0  0  0  0  0  0
    4.0442    8.7421    6.5666 H   0  0  0  0  0  0  0  0  0  0  0  0
    5.4832    8.0542    8.8551 C   0  0  0  0  0  0  0  0  0  0  0  0
    3.4706    8.3268    9.5452 H   0  0  0  0  0  0  0  0  0  0  0  0
    5.9716    7.9654   10.1599 C   0  0  0  0  0  0  0  0  0  0  0  0
    7.2938    7.6519   10.4074 C   0  0  0  0  0  0  0  0  0  0  0  0
    8.1735    7.4037    9.3595 C   0  0  0  0  0  0  0  0  0  0  0  0
    6.3737    7.8170    7.8072 C   0  0  0  0  0  0  0  0  0  0  0  0
    7.6941    7.4961    8.0543 C   0  0  0  0  0  0  0  0  0  0  0  0
    6.0376    7.8709    6.7836 H   0  0  0  0  0  0  0  0  0  0  0  0
    8.3578    7.3271    7.2185 H   0  0  0  0  0  0  0  0  0  0  0  0
    7.6459    7.6058   11.4286 H   0  0  0  0  0  0  0  0  0  0  0  0
    5.3019    8.1406   10.9885 H   0  0  0  0  0  0  0  0  0  0  0  0
    9.6105    7.0291    9.6261 C   0  0  0  0  0  0  0  0  0  0  0  0
    9.9076    5.5964    9.6426 N   0  0  0  0  0  0  0  0  0  0  0  0
    9.9194    7.4154   10.6009 H   0  0  0  0  0  0  0  0  0  0  0  0
   10.2582    7.4713    8.8658 H   0  0  0  0  0  0  0  0  0  0  0  0
    9.7940    4.9011    8.4078 C   0  0  0  0  0  0  0  0  0  0  0  0
    9.1149    4.7931   10.5556 C   0  0  0  0  0  0  0  0  0  0  0  0
    7.9114    4.2910    9.7286 C   0  0  0  0  0  0  0  0  0  0  0  0
    8.8077    5.3701   11.4238 H   0  0  0  0  0  0  0  0  0  0  0  0
    9.7294    3.9538   10.8944 H   0  0  0  0  0  0  0  0  0  0  0  0
    8.3584    4.4160    8.3165 N   0  0  0  0  0  0  0  0  0  0  0  0
    7.0345    4.9119    9.8980 H   0  0  0  0  0  0  0  0  0  0  0  0
    7.6374    3.2611    9.9478 H   0  0  0  0  0  0  0  0  0  0  0  0
   10.4334    4.0163    8.4400 H   0  0  0  0  0  0  0  0  0  0  0  0
   10.0301    5.5066    7.5342 H   0  0  0  0  0  0  0  0  0  0  0  0
    8.1218    3.2160    7.4784 C   0  0  0  0  0  0  0  0  0  0  0  0
    8.9971    2.0041    7.8092 C   0  0  0  0  0  0  0  0  0  0  0  0
    8.2809    3.5098    6.4393 H   0  0  0  0  0  0  0  0  0  0  0  0
    7.0693    2.9591    7.6187 H   0  0  0  0  0  0  0  0  0  0  0  0
   10.1158    1.7856    6.7859 C   0  0  0  0  0  0  0  0  0  0  0  0
    8.3566    1.1210    7.8100 H   0  0  0  0  0  0  0  0  0  0  0  0
    9.4174    2.0839    8.8135 H   0  0  0  0  0  0  0  0  0  0  0  0
   10.8841    0.4982    7.0649 C   0  0  0  0  0  0  0  0  0  0  0  0
   10.8090    2.6295    6.7870 H   0  0  0  0  0  0  0  0  0  0  0  0
    9.6718    1.7377    5.7904 H   0  0  0  0  0  0  0  0  0  0  0  0
   11.6657    0.3533    6.3236 H   0  0  0  0  0  0  0  0  0  0  0  0
   10.2144   -0.3574    7.0290 H   0  0  0  0  0  0  0  0  0  0  0  0
   11.3465    0.5291    8.0494 H   0  0  0  0  0  0  0  0  0  0  0  0
    7.8353    5.1752    7.8616 H   0  0  0  0  0  0  0  0  0  0  0  0
    4.0494   -0.6362    7.1118 C   0  0  0  0  0  0  0  0  0  0  0  0
    4.7364    0.0971    6.2465 C   0  0  0  0  0  0  0  0  0  0  0  0
    4.3250   -1.6536    7.3349 H   0  0  0  0  0  0  0  0  0  0  0  0
    3.2162   -0.2277    7.6574 H   0  0  0  0  0  0  0  0  0  0  0  0
    4.4297    1.4883    5.9355 C   0  0  0  0  0  0  0  0  0  0  0  0
    5.6156   -0.3052    5.7571 H   0  0  0  0  0  0  0  0  0  0  0  0
    5.4560    2.3568    5.5728 C   0  0  0  0  0  0  0  0  0  0  0  0
    5.2060    3.6970    5.3504 C   0  0  0  0  0  0  0  0  0  0  0  0
    3.9123    4.1952    5.4294 C   0  0  0  0  0  0  0  0  0  0  0  0
    3.1329    1.9917    6.0227 C   0  0  0  0  0  0  0  0  0  0  0  0
    2.8789    3.3227    5.7635 C   0  0  0  0  0  0  0  0  0  0  0  0
    2.3230    1.3348    6.2932 H   0  0  0  0  0  0  0  0  0  0  0  0
    1.8734    3.7038    5.8679 H   0  0  0  0  0  0  0  0  0  0  0  0
    6.0246    4.3633    5.1195 H   0  0  0  0  0  0  0  0  0  0  0  0
    6.4656    1.9870    5.4840 H   0  0  0  0  0  0  0  0  0  0  0  0
    3.6233    5.6475    5.1567 C   0  0  0  0  0  0  0  0  0  0  0  0
    3.2961    5.9699    3.7596 N   0  0  0  0  0  0  0  0  0  0  0  0
    4.4832    6.2519    5.4412 H   0  0  0  0  0  0  0  0  0  0  0  0
    2.7667    5.9618    5.7618 H   0  0  0  0  0  0  0  0  0  0  0  0
    2.6534    4.9683    3.0024 C   0  0  0  0  0  0  0  0  0  0  0  0
    4.3408    6.5074    2.8999 C   0  0  0  0  0  0  0  0  0  0  0  0
    4.5745    5.4690    1.7774 C   0  0  0  0  0  0  0  0  0  0  0  0
    5.2619    6.6794    3.4539 H   0  0  0  0  0  0  0  0  0  0  0  0
    4.0011    7.4567    2.4736 H   0  0  0  0  0  0  0  0  0  0  0  0
    3.7385    4.3100    2.1651 N   0  0  0  0  0  0  0  0  0  0  0  0
    5.6231    5.1852    1.7132 H   0  0  0  0  0  0  0  0  0  0  0  0
    4.2329    5.8457    0.8123 H   0  0  0  0  0  0  0  0  0  0  0  0
    1.9602    5.4184    2.2785 H   0  0  0  0  0  0  0  0  0  0  0  0
    2.1355    4.2378    3.6235 H   0  0  0  0  0  0  0  0  0  0  0  0
    3.1965    3.5087    1.0504 C   0  0  0  0  0  0  0  0  0  0  0  0
    4.1827    2.4660    0.5184 C   0  0  0  0  0  0  0  0  0  0  0  0
    2.8974    4.2039    0.2617 H   0  0  0  0  0  0  0  0  0  0  0  0
    2.2971    3.0027    1.4100 H   0  0  0  0  0  0  0  0  0  0  0  0
    3.8922    1.0578    1.0449 C   0  0  0  0  0  0  0  0  0  0  0  0
    5.1954    2.7484    0.8032 H   0  0  0  0  0  0  0  0  0  0  0  0
    4.1351    2.4480   -0.5708 H   0  0  0  0  0  0  0  0  0  0  0  0
    3.9451    0.9621    2.5660 C   0  0  0  0  0  0  0  0  0  0  0  0
    4.6385    0.3841    0.6229 H   0  0  0  0  0  0  0  0  0  0  0  0
    2.9120    0.7309    0.6883 H   0  0  0  0  0  0  0  0  0  0  0  0
    3.8974   -0.0777    2.8772 H   0  0  0  0  0  0  0  0  0  0  0  0
    3.1115    1.4795    3.0368 H   0  0  0  0  0  0  0  0  0  0  0  0
    4.8718    1.3869    2.9400 H   0  0  0  0  0  0  0  0  0  0  0  0
    4.3421    3.7112    2.7585 H   0  0  0  0  0  0  0  0  0  0  0  0
  1  3  1  0  0  0  0
  1  4  1  0  0  0  0
  1  5  1  0  0  0  0
  2  6  1  0  0  0  0
  2  7  1  0  0  0  0
  2  8  1  0  0  0  0
  1  9  1  0  0  0  0
  2 10  1  0  0  0  0
  9 11  1  0  0  0  0
 10 11  1  0  0  0  0
  9 12  2  0  0  0  0
  9 13  2  0  0  0  0
 10 14  2  0  0  0  0
 10 15  2  0  0  0  0
 16 18  1  0  0  0  0
 16 19  1  0  0  0  0
 16 20  1  0  0  0  0
 17 21  1  0  0  0  0
 17 22  1  0  0  0  0
 17 23  1  0  0  0  0
 16 24  1  0  0  0  0
 17 25  1  0  0  0  0
 24 26  1  0  0  0  0
 25 26  1  0  0  0  0
 24 27  2  0  0  0  0
 24 28  2  0  0  0  0
 25 29  2  0  0  0  0
 25 30  2  0  0  0  0
 31 32  2  0  0  0  0
 31 33  1  0  0  0  0
 31 34  1  0  0  0  0
 32 35  1  0  0  0  0
 32 36  1  0  0  0  0
 35 37  4  0  0  0  0
 37 38  4  0  0  0  0
 38 39  4  0  0  0  0
 35 40  4  0  0  0  0
 39 41  4  0  0  0  0
 40 41  4  0  0  0  0
 40 42  1  0  0  0  0
 41 43  1  0  0  0  0
 38 44  1  0  0  0  0
 37 45  1  0  0  0  0
 39 46  1  0  0  0  0
 46 47  1  0  0  0  0
 46 48  1  0  0  0  0
 46 49  1  0  0  0  0
 47 50  1  0  0  0  0
 47 51  1  0  0  0  0
 51 52  1  0  0  0  0
 51 53  1  0  0  0  0
 51 54  1  0  0  0  0
 50 55  1  0  0  0  0
 52 55  1  0  0  0  0
 52 56  1  0  0  0  0
 52 57  1  0  0  0  0
 50 58  1  0  0  0  0
 50 59  1  0  0  0  0
 55 60  1  0  0  0  0
 60 61  1  0  0  0  0
 60 62  1  0  0  0  0
 60 63  1  0  0  0  0
 61 64  1  0  0  0  0
 61 65  1  0  0  0  0
 61 66  1  0  0  0  0
 64 67  1  0  0  0  0
 64 68  1  0  0  0  0
 64 69  1  0  0  0  0
 67 70  1  0  0  0  0
 67 71  1  0  0  0  0
 67 72  1  0  0  0  0
 55 73  1  0  0  0  0
 74 75  2  0  0  0  0
 74 76  1  0  0  0  0
 74 77  1  0  0  0  0
 75 78  1  0  0  0  0
 75 79  1  0  0  0  0
 78 80  4  0  0  0  0
 80 81  4  0  0  0  0
 81 82  4  0  0  0  0
 78 83  4  0  0  0  0
 82 84  4  0  0  0  0
 83 84  4  0  0  0  0
 83 85  1  0  0  0  0
 84 86  1  0  0  0  0
 81 87  1  0  0  0  0
 80 88  1  0  0  0  0
 82 89  1  0  0  0  0
 89 90  1  0  0  0  0
 89 91  1  0  0  0  0
 89 92  1  0  0  0  0
 90 93  1  0  0  0  0
 90 94  1  0  0  0  0
 94 95  1  0  0  0  0
 94 96  1  0  0  0  0
 94 97  1  0  0  0  0
 93 98  1  0  0  0  0
 95 98  1  0  0  0  0
 95 99  1  0  0  0  0
 95100  1  0  0  0  0
 93101  1  0  0  0  0
 93102  1  0  0  0  0
 98103  1  0  0  0  0
103104  1  0  0  0  0
103105  1  0  0  0  0
103106  1  0  0  0  0
104107  1  0  0  0  0
104108  1  0  0  0  0
104109  1  0  0  0  0
107110  1  0  0  0  0
107111  1  0  0  0  0
107112  1  0  0  0  0
110113  1  0  0  0  0
110114  1  0  0  0  0
110115  1  0  0  0  0
 98116  1  0  0  0  0
M  END
