 xtb: 6.7.1 (edcfbbe)
          10212513443D

116116  0     0  0            999 V2000
    1.8853    8.6676    4.1335 C   0  0  0  0  0  0  0  0  0  0  0  0
    4.3268   10.0863    0.6239 C   0  0  0  0  0  0  0  0  0  0  0  0
    1.4404    9.7664    4.7419 F   0  0  0  0  0  0  0  0  0  0  0  0
    1.4793    8.7174    2.8613 F   0  0  0  0  0  0  0  0  0  0  0  0
    1.2194    7.6351    4.6969 F   0  0  0  0  0  0  0  0  0  0  0  0
    4.9728    9.0633    0.0366 F   0  0  0  0  0  0  0  0  0  0  0  0
    3.0272    9.9037    0.4169 F   0  0  0  0  0  0  0  0  0  0  0  0
    4.6901   11.1894   -0.0383 F   0  0  0  0  0  0  0  0  0  0  0  0
    3.7863    8.4491    4.2933 S   0  0  0  0  0  0  0  0  0  0  0  0
    4.7737   10.1757    2.4626 S   0  0  0  0  0  0  0  0  0  0  0  0
    4.2124    8.7409    2.8230 N   0  0  0  0  0  0  0  0  0  0  0  0
    4.0718    9.4010    5.3303 O   0  0  0  0  0  0  0  0  0  0  0  0
    3.8625    7.0543    4.6248 O   0  0  0  0  0  0  0  0  0  0  0  0
    4.0279   11.2687    2.9792 O   0  0  0  0  0  0  0  0  0  0  0  0
    6.2043   10.2585    2.4102 O   0  0  0  0  0  0  0  0  0  0  0  0
    6.0753   10.5928    6.1987 C   0  0  0  0  0  0  0  0  0  0  0  0
    7.6989    6.9903    8.3963 C   0  0  0  0  0  0  0  0  0  0  0  0
    5.1038   10.8673    7.0536 F   0  0  0  0  0  0  0  0  0  0  0  0
    7.2047   11.0926    6.7085 F   0  0  0  0  0  0  0  0  0  0  0  0
    5.8687   11.2483    5.0678 F   0  0  0  0  0  0  0  0  0  0  0  0
    7.7217    6.1284    7.3684 F   0  0  0  0  0  0  0  0  0  0  0  0
    8.8361    7.6550    8.4319 F   0  0  0  0  0  0  0  0  0  0  0  0
    7.6719    6.2264    9.5038 F   0  0  0  0  0  0  0  0  0  0  0  0
    6.3503    8.7549    5.9043 S   0  0  0  0  0  0  0  0  0  0  0  0
    6.1179    8.0556    8.3596 S   0  0  0  0  0  0  0  0  0  0  0  0
    5.4881    7.8981    6.9285 N   0  0  0  0  0  0  0  0  0  0  0  0
    6.1537    8.3955    4.5254 O   0  0  0  0  0  0  0  0  0  0  0  0
    7.7291    8.5736    6.2948 O   0  0  0  0  0  0  0  0  0  0  0  0
    6.5273    9.3627    8.7278 O   0  0  0  0  0  0  0  0  0  0  0  0
    5.2694    7.3427    9.2958 O   0  0  0  0  0  0  0  0  0  0  0  0
    7.4502   10.1770   11.7409 C   0  0  0  0  0  0  0  0  0  0  0  0
    6.4491    9.6488   12.4330 C   0  0  0  0  0  0  0  0  0  0  0  0
    8.4069   10.3714   12.1966 H   0  0  0  0  0  0  0  0  0  0  0  0
    7.3580   10.3950   10.6913 H   0  0  0  0  0  0  0  0  0  0  0  0
    5.1338    9.3417   11.8802 C   0  0  0  0  0  0  0  0  0  0  0  0
    6.5870    9.3815   13.4748 H   0  0  0  0  0  0  0  0  0  0  0  0
    4.6032   10.0423   10.7987 C   0  0  0  0  0  0  0  0  0  0  0  0
    3.3678    9.7098   10.2805 C   0  0  0  0  0  0  0  0  0  0  0  0
    2.6203    8.6741   10.8302 C   0  0  0  0  0  0  0  0  0  0  0  0
    4.3667    8.3292   12.4532 C   0  0  0  0  0  0  0  0  0  0  0  0
    3.1315    7.9990   11.9340 C   0  0  0  0  0  0  0  0  0  0  0  0
    4.7492    7.7898   13.3086 H   0  0  0  0  0  0  0  0  0  0  0  0
    2.5434    7.2245   12.4112 H   0  0  0  0  0  0  0  0  0  0  0  0
    2.9762   10.2777    9.4490 H   0  0  0  0  0  0  0  0  0  0  0  0
    5.1586   10.8554   10.3629 H   0  0  0  0  0  0  0  0  0  0  0  0
    1.3004    8.2619   10.2339 C   0  0  0  0  0  0  0  0  0  0  0  0
    1.3922    7.2733    9.1608 N   0  0  0  0  0  0  0  0  0  0  0  0
    0.7833    9.1235    9.8096 H   0  0  0  0  0  0  0  0  0  0  0  0
    0.6586    7.8250   11.0058 H   0  0  0  0  0  0  0  0  0  0  0  0
    2.1079    6.0581    9.4634 C   0  0  0  0  0  0  0  0  0  0  0  0
    1.8882    7.7731    7.8769 C   0  0  0  0  0  0  0  0  0  0  0  0
    2.5655    6.5619    7.2624 C   0  0  0  0  0  0  0  0  0  0  0  0
    2.6228    8.5777    7.9946 H   0  0  0  0  0  0  0  0  0  0  0  0
    1.0532    8.1344    7.2754 H   0  0  0  0  0  0  0  0  0  0  0  0
    3.1821    5.9236    8.4441 N   0  0  0  0  0  0  0  0  0  0  0  0
    3.3144    6.8256    6.5177 H   0  0  0  0  0  0  0  0  0  0  0  0
    1.8312    5.8760    6.8348 H   0  0  0  0  0  0  0  0  0  0  0  0
    1.4293    5.1987    9.3437 H   0  0  0  0  0  0  0  0  0  0  0  0
    2.5229    6.0588   10.4726 H   0  0  0  0  0  0  0  0  0  0  0  0
    3.6745    4.5557    8.1946 C   0  0  0  0  0  0  0  0  0  0  0  0
    4.9043    4.1908    9.0228 C   0  0  0  0  0  0  0  0  0  0  0  0
    3.9356    4.4946    7.1360 H   0  0  0  0  0  0  0  0  0  0  0  0
    2.8569    3.8546    8.3925 H   0  0  0  0  0  0  0  0  0  0  0  0
    4.7269    4.3409   10.5333 C   0  0  0  0  0  0  0  0  0  0  0  0
    5.7377    4.8158    8.7081 H   0  0  0  0  0  0  0  0  0  0  0  0
    5.1579    3.1534    8.7928 H   0  0  0  0  0  0  0  0  0  0  0  0
    5.9188    3.7531   11.2810 C   0  0  0  0  0  0  0  0  0  0  0  0
    3.8125    3.8344   10.8529 H   0  0  0  0  0  0  0  0  0  0  0  0
    4.6591    5.4005   10.7805 H   0  0  0  0  0  0  0  0  0  0  0  0
    6.0303    2.6930   11.0626 H   0  0  0  0  0  0  0  0  0  0  0  0
    5.7878    3.8705   12.3533 H   0  0  0  0  0  0  0  0  0  0  0  0
    6.8288    4.2682   10.9890 H   0  0  0  0  0  0  0  0  0  0  0  0
    4.0010    6.5241    8.7374 H   0  0  0  0  0  0  0  0  0  0  0  0
   -0.4484    2.5125    1.4504 C   0  0  0  0  0  0  0  0  0  0  0  0
    0.1156    3.6830    1.7249 C   0  0  0  0  0  0  0  0  0  0  0  0
   -1.4734    2.3120    1.7115 H   0  0  0  0  0  0  0  0  0  0  0  0
    0.0744    1.7114    0.9559 H   0  0  0  0  0  0  0  0  0  0  0  0
    1.4839    4.0916    1.4296 C   0  0  0  0  0  0  0  0  0  0  0  0
   -0.4747    4.4433    2.2212 H   0  0  0  0  0  0  0  0  0  0  0  0
    2.4150    3.2562    0.8123 C   0  0  0  0  0  0  0  0  0  0  0  0
    3.7033    3.6938    0.5701 C   0  0  0  0  0  0  0  0  0  0  0  0
    4.0956    4.9762    0.9291 C   0  0  0  0  0  0  0  0  0  0  0  0
    1.8912    5.3813    1.7823 C   0  0  0  0  0  0  0  0  0  0  0  0
    3.1744    5.8235    1.5356 C   0  0  0  0  0  0  0  0  0  0  0  0
    1.1875    6.0477    2.2569 H   0  0  0  0  0  0  0  0  0  0  0  0
    3.4788    6.8161    1.8302 H   0  0  0  0  0  0  0  0  0  0  0  0
    4.4101    3.0271    0.0931 H   0  0  0  0  0  0  0  0  0  0  0  0
    2.1356    2.2549    0.5227 H   0  0  0  0  0  0  0  0  0  0  0  0
    5.5002    5.4750    0.6844 C   0  0  0  0  0  0  0  0  0  0  0  0
    5.9078    6.2883    1.8021 N   0  0  0  0  0  0  0  0  0  0  0  0
    5.4970    6.1090   -0.2066 H   0  0  0  0  0  0  0  0  0  0  0  0
    6.1727    4.6158    0.4993 H   0  0  0  0  0  0  0  0  0  0  0  0
    6.8616    7.3036    1.6780 C   0  0  0  0  0  0  0  0  0  0  0  0
    6.1563    5.6282    3.0687 C   0  0  0  0  0  0  0  0  0  0  0  0
    7.6330    5.9510    3.4157 C   0  0  0  0  0  0  0  0  0  0  0  0
    5.9747    4.5557    2.9669 H   0  0  0  0  0  0  0  0  0  0  0  0
    5.4933    6.0400    3.8317 H   0  0  0  0  0  0  0  0  0  0  0  0
    8.1539    6.6469    2.2173 N   0  0  0  0  0  0  0  0  0  0  0  0
    8.2281    5.0631    3.6312 H   0  0  0  0  0  0  0  0  0  0  0  0
    7.6651    6.6372    4.2605 H   0  0  0  0  0  0  0  0  0  0  0  0
    6.6373    8.1336    2.3536 H   0  0  0  0  0  0  0  0  0  0  0  0
    6.9971    7.6565    0.6564 H   0  0  0  0  0  0  0  0  0  0  0  0
    9.3304    7.5212    2.4275 C   0  0  0  0  0  0  0  0  0  0  0  0
    9.0333    8.8212    3.1687 C   0  0  0  0  0  0  0  0  0  0  0  0
    9.7488    7.7503    1.4428 H   0  0  0  0  0  0  0  0  0  0  0  0
   10.0677    6.9410    2.9893 H   0  0  0  0  0  0  0  0  0  0  0  0
   10.3264    9.4562    3.6901 C   0  0  0  0  0  0  0  0  0  0  0  0
    8.3842    8.6410    4.0228 H   0  0  0  0  0  0  0  0  0  0  0  0
    8.5089    9.5162    2.5139 H   0  0  0  0  0  0  0  0  0  0  0  0
   10.8529    8.7503    4.9356 C   0  0  0  0  0  0  0  0  0  0  0  0
   10.1079   10.4907    3.9484 H   0  0  0  0  0  0  0  0  0  0  0  0
   11.0872    9.4611    2.9043 H   0  0  0  0  0  0  0  0  0  0  0  0
   10.0659    8.6967    5.6837 H   0  0  0  0  0  0  0  0  0  0  0  0
   11.6922    9.3005    5.3530 H   0  0  0  0  0  0  0  0  0  0  0  0
   11.1957    7.7414    4.7147 H   0  0  0  0  0  0  0  0  0  0  0  0
    8.4134    5.9312    1.5325 H   0  0  0  0  0  0  0  0  0  0  0  0
  1  3  1  0  0  0  0
  1  4  1  0  0  0  0
  1  5  1  0  0  0  0
  2  6  1  0  0  0  0
  2  7  1  0  0  0  0
  2  8  1  0  0  0  0
  1  9  1  0  0  0  0
  2 10  1  0  0  0  0
  9 11  1  0  0  0  0
 10 11  1  0  0  0  0
  9 12  2  0  0  0  0
  9 13  2  0  0  0  0
 10 14  2  0  0  0  0
 10 15  2  0  0  0  0
 16 18  1  0  0  0  0
 16 19  1  0  0  0  0
 16 20  1  0  0  0  0
 17 21  1  0  0  0  0
 17 22  1  0  0  0  0
 17 23  1  0  0  0  0
 16 24  1  0  0  0  0
 17 25  1  0  0  0  0
 24 26  1  0  0  0  0
 25 26  1  0  0  0  0
 24 27  2  0  0  0  0
 24 28  2  0  0  0  0
 25 29  2  0  0  0  0
 25 30  2  0  0  0  0
 31 32  2  0  0  0  0
 31 33  1  0  0  0  0
 31 34  1  0  0  0  0
 32 35  1  0  0  0  0
 32 36  1  0  0  0  0
 35 37  4  0  0  0  0
 37 38  4  0  0  0  0
 38 39  4  0  0  0  0
 35 40  4  0  0  0  0
 39 41  4  0  0  0  0
 40 41  4  0  0  0  0
 40 42  1  0  0  0  0
 41 43  1  0  0  0  0
 38 44  1  0  0  0  0
 37 45  1  0  0  0  0
 39 46  1  0  0  0  0
 46 47  1  0  0  0  0
 46 48  1  0  0  0  0
 46 49  1  0  0  0  0
 47 50  1  0  0  0  0
 47 51  1  0  0  0  0
 51 52  1  0  0  0  0
 51 53  1  0  0  0  0
 51 54  1  0  0  0  0
 50 55  1  0  0  0  0
 52 55  1  0  0  0  0
 52 56  1  0  0  0  0
 52 57  1  0  0  0  0
 50 58  1  0  0  0  0
 50 59  1  0  0  0  0
 55 60  1  0  0  0  0
 60 61  1  0  0  0  0
 60 62  1  0  0  0  0
 60 63  1  0  0  0  0
 61 64  1  0  0  0  0
 61 65  1  0  0  0  0
 61 66  1  0  0  0  0
 64 67  1  0  0  0  0
 64 68  1  0  0  0  0
 64 69  1  0  0  0  0
 67 70  1  0  0  0  0
 67 71  1  0  0  0  0
 67 72  1  0  0  0  0
 55 73  1  0  0  0  0
 74 75  2  0  0  0  0
 74 76  1  0  0  0  0
 74 77  1  0  0  0  0
 75 78  1  0  0  0  0
 75 79  1  0  0  0  0
 78 80  4  0  0  0  0
 80 81  4  0  0  0  0
 81 82  4  0  0  0  0
 78 83  4  0  0  0  0
 82 84  4  0  0  0  0
 83 84  4  0  0  0  0
 83 85  1  0  0  0  0
 84 86  1  0  0  0  0
 81 87  1  0  0  0  0
 80 88  1  0  0  0  0
 82 89  1  0  0  0  0
 89 90  1  0  0  0  0
 89 91  1  0  0  0  0
 89 92  1  0  0  0  0
 90 93  1  0  0  0  0
 90 94  1  0  0  0  0
 94 95  1  0  0  0  0
 94 96  1  0  0  0  0
 94 97  1  0  0  0  0
 93 98  1  0  0  0  0
 95 98  1  0  0  0  0
 95 99  1  0  0  0  0
 95100  1  0  0  0  0
 93101  1  0  0  0  0
 93102  1  0  0  0  0
 98103  1  0  0  0  0
103104  1  0  0  0  0
103105  1  0  0  0  0
103106  1  0  0  0  0
104107  1  0  0  0  0
104108  1  0  0  0  0
104109  1  0  0  0  0
107110  1  0  0  0  0
107111  1  0  0  0  0
107112  1  0  0  0  0
110113  1  0  0  0  0
110114  1  0  0  0  0
110115  1  0  0  0  0
 98116  1  0  0  0  0
M  END
