 xtb: 6.7.1 (edcfbbe)
          10212513483D

116116  0     0  0            999 V2000
    5.4967    0.5846    1.0249 C   0  0  0  0  0  0  0  0  0  0  0  0
    0.5677    0.7035    1.7637 C   0  0  0  0  0  0  0  0  0  0  0  0
    6.8000    0.8162    1.1865 F   0  0  0  0  0  0  0  0  0  0  0  0
    5.3489   -0.7026    0.7398 F   0  0  0  0  0  0  0  0  0  0  0  0
    5.0692    1.2993   -0.0088 F   0  0  0  0  0  0  0  0  0  0  0  0
   -0.4576   -0.1456    1.8353 F   0  0  0  0  0  0  0  0  0  0  0  0
    0.2318    1.7935    2.4629 F   0  0  0  0  0  0  0  0  0  0  0  0
    0.7156    1.0622    0.4945 F   0  0  0  0  0  0  0  0  0  0  0  0
    4.5658    1.0595    2.5827 S   0  0  0  0  0  0  0  0  0  0  0  0
    2.1437   -0.0183    2.4840 S   0  0  0  0  0  0  0  0  0  0  0  0
    3.0679    1.2507    2.1986 N   0  0  0  0  0  0  0  0  0  0  0  0
    4.7958    0.0222    3.5482 O   0  0  0  0  0  0  0  0  0  0  0  0
    5.1346    2.3366    2.9711 O   0  0  0  0  0  0  0  0  0  0  0  0
    2.4810   -1.1746    1.7311 O   0  0  0  0  0  0  0  0  0  0  0  0
    1.8445   -0.1653    3.8786 O   0  0  0  0  0  0  0  0  0  0  0  0
    9.1359    7.4057    4.5952 C   0  0  0  0  0  0  0  0  0  0  0  0
    8.0009    3.9006    1.5206 C   0  0  0  0  0  0  0  0  0  0  0  0
   10.4342    7.3218    4.4067 F   0  0  0  0  0  0  0  0  0  0  0  0
    8.5791    8.1949    3.6856 F   0  0  0  0  0  0  0  0  0  0  0  0
    8.9912    8.0640    5.7851 F   0  0  0  0  0  0  0  0  0  0  0  0
    8.2058    3.0413    2.5178 F   0  0  0  0  0  0  0  0  0  0  0  0
    6.8062    3.6647    0.9938 F   0  0  0  0  0  0  0  0  0  0  0  0
    8.9207    3.6708    0.5869 F   0  0  0  0  0  0  0  0  0  0  0  0
    8.2049    5.7542    4.7792 S   0  0  0  0  0  0  0  0  0  0  0  0
    8.1031    5.6621    2.1663 S   0  0  0  0  0  0  0  0  0  0  0  0
    7.2889    5.5914    3.5387 N   0  0  0  0  0  0  0  0  0  0  0  0
    9.2047    4.7854    5.0821 O   0  0  0  0  0  0  0  0  0  0  0  0
    7.3444    6.0477    5.9305 O   0  0  0  0  0  0  0  0  0  0  0  0
    7.4503    6.4671    1.1918 O   0  0  0  0  0  0  0  0  0  0  0  0
    9.4795    5.9267    2.4555 O   0  0  0  0  0  0  0  0  0  0  0  0
   -0.0490   12.1504    5.6022 C   0  0  0  0  0  0  0  0  0  0  0  0
    1.2468   12.4181    5.7086 C   0  0  0  0  0  0  0  0  0  0  0  0
   -0.7669   12.9284    5.4066 H   0  0  0  0  0  0  0  0  0  0  0  0
   -0.4475   11.1543    5.6914 H   0  0  0  0  0  0  0  0  0  0  0  0
    2.3130   11.4542    5.9543 C   0  0  0  0  0  0  0  0  0  0  0  0
    1.5841   13.4398    5.5822 H   0  0  0  0  0  0  0  0  0  0  0  0
    2.0732   10.1411    6.3580 C   0  0  0  0  0  0  0  0  0  0  0  0
    3.1156    9.2550    6.5485 C   0  0  0  0  0  0  0  0  0  0  0  0
    4.4320    9.6506    6.3519 C   0  0  0  0  0  0  0  0  0  0  0  0
    3.6395   11.8486    5.7710 C   0  0  0  0  0  0  0  0  0  0  0  0
    4.6787   10.9626    5.9676 C   0  0  0  0  0  0  0  0  0  0  0  0
    3.8520   12.8609    5.4584 H   0  0  0  0  0  0  0  0  0  0  0  0
    5.6962   11.2879    5.8090 H   0  0  0  0  0  0  0  0  0  0  0  0
    2.8943    8.2350    6.8272 H   0  0  0  0  0  0  0  0  0  0  0  0
    1.0606    9.8063    6.5219 H   0  0  0  0  0  0  0  0  0  0  0  0
    5.5807    8.7045    6.5784 C   0  0  0  0  0  0  0  0  0  0  0  0
    5.9264    8.7021    8.0077 N   0  0  0  0  0  0  0  0  0  0  0  0
    6.4437    9.0582    6.0144 H   0  0  0  0  0  0  0  0  0  0  0  0
    5.3369    7.6999    6.2151 H   0  0  0  0  0  0  0  0  0  0  0  0
    7.2989    8.5756    8.3289 C   0  0  0  0  0  0  0  0  0  0  0  0
    5.3014    7.6602    8.7967 C   0  0  0  0  0  0  0  0  0  0  0  0
    6.3146    6.4836    8.8142 C   0  0  0  0  0  0  0  0  0  0  0  0
    4.3404    7.3790    8.3759 H   0  0  0  0  0  0  0  0  0  0  0  0
    5.1395    8.0393    9.8101 H   0  0  0  0  0  0  0  0  0  0  0  0
    7.5691    7.0844    8.3036 N   0  0  0  0  0  0  0  0  0  0  0  0
    6.0152    5.6845    8.1379 H   0  0  0  0  0  0  0  0  0  0  0  0
    6.4577    6.0842    9.8172 H   0  0  0  0  0  0  0  0  0  0  0  0
    7.4654    8.9246    9.3528 H   0  0  0  0  0  0  0  0  0  0  0  0
    7.9560    9.0986    7.6392 H   0  0  0  0  0  0  0  0  0  0  0  0
    8.8279    6.6138    8.9118 C   0  0  0  0  0  0  0  0  0  0  0  0
    9.0115    7.0009   10.3844 C   0  0  0  0  0  0  0  0  0  0  0  0
    9.6459    7.0264    8.3182 H   0  0  0  0  0  0  0  0  0  0  0  0
    8.8497    5.5294    8.7877 H   0  0  0  0  0  0  0  0  0  0  0  0
    9.9725    8.1754   10.5838 C   0  0  0  0  0  0  0  0  0  0  0  0
    9.4105    6.1437   10.9282 H   0  0  0  0  0  0  0  0  0  0  0  0
    8.0495    7.2440   10.8390 H   0  0  0  0  0  0  0  0  0  0  0  0
   10.1030    8.5372   12.0586 C   0  0  0  0  0  0  0  0  0  0  0  0
    9.6280    9.0483   10.0267 H   0  0  0  0  0  0  0  0  0  0  0  0
   10.9535    7.9013   10.1927 H   0  0  0  0  0  0  0  0  0  0  0  0
   10.4718    7.6888   12.6298 H   0  0  0  0  0  0  0  0  0  0  0  0
    9.1413    8.8358   12.4705 H   0  0  0  0  0  0  0  0  0  0  0  0
   10.7989    9.3616   12.1858 H   0  0  0  0  0  0  0  0  0  0  0  0
    7.5992    6.7917    7.2850 H   0  0  0  0  0  0  0  0  0  0  0  0
    5.6081    9.5506    2.3646 C   0  0  0  0  0  0  0  0  0  0  0  0
    4.3946    9.2675    2.8238 C   0  0  0  0  0  0  0  0  0  0  0  0
    5.9152   10.5702    2.2013 H   0  0  0  0  0  0  0  0  0  0  0  0
    6.3329    8.7907    2.1271 H   0  0  0  0  0  0  0  0  0  0  0  0
    3.8784    7.9318    3.0968 C   0  0  0  0  0  0  0  0  0  0  0  0
    3.7085   10.0747    3.0560 H   0  0  0  0  0  0  0  0  0  0  0  0
    2.6705    7.7983    3.7855 C   0  0  0  0  0  0  0  0  0  0  0  0
    2.1811    6.5531    4.1235 C   0  0  0  0  0  0  0  0  0  0  0  0
    2.8711    5.4018    3.7600 C   0  0  0  0  0  0  0  0  0  0  0  0
    4.5450    6.7721    2.7006 C   0  0  0  0  0  0  0  0  0  0  0  0
    4.0482    5.5257    3.0307 C   0  0  0  0  0  0  0  0  0  0  0  0
    5.4523    6.8341    2.1258 H   0  0  0  0  0  0  0  0  0  0  0  0
    4.5783    4.6406    2.7112 H   0  0  0  0  0  0  0  0  0  0  0  0
    1.2515    6.4645    4.6672 H   0  0  0  0  0  0  0  0  0  0  0  0
    2.1173    8.6860    4.0559 H   0  0  0  0  0  0  0  0  0  0  0  0
    2.3539    4.0480    4.1573 C   0  0  0  0  0  0  0  0  0  0  0  0
    2.6535    3.7909    5.5762 N   0  0  0  0  0  0  0  0  0  0  0  0
    2.7639    3.2751    3.4954 H   0  0  0  0  0  0  0  0  0  0  0  0
    1.2654    4.0307    4.0702 H   0  0  0  0  0  0  0  0  0  0  0  0
    4.0402    3.7340    5.8955 C   0  0  0  0  0  0  0  0  0  0  0  0
    2.1222    2.5248    6.0606 C   0  0  0  0  0  0  0  0  0  0  0  0
    3.2834    1.5085    5.9822 C   0  0  0  0  0  0  0  0  0  0  0  0
    1.2752    2.2023    5.4594 H   0  0  0  0  0  0  0  0  0  0  0  0
    1.7918    2.6575    7.0956 H   0  0  0  0  0  0  0  0  0  0  0  0
    4.4631    2.3177    5.5983 N   0  0  0  0  0  0  0  0  0  0  0  0
    3.0870    0.7271    5.2478 H   0  0  0  0  0  0  0  0  0  0  0  0
    3.4719    1.0493    6.9538 H   0  0  0  0  0  0  0  0  0  0  0  0
    4.1737    3.8888    6.9749 H   0  0  0  0  0  0  0  0  0  0  0  0
    4.6351    4.4507    5.3274 H   0  0  0  0  0  0  0  0  0  0  0  0
    5.7180    1.8445    6.2013 C   0  0  0  0  0  0  0  0  0  0  0  0
    6.9273    2.6035    5.6663 C   0  0  0  0  0  0  0  0  0  0  0  0
    5.8094    0.7906    5.9297 H   0  0  0  0  0  0  0  0  0  0  0  0
    5.6397    1.9326    7.2904 H   0  0  0  0  0  0  0  0  0  0  0  0
    8.2345    1.8511    5.9272 C   0  0  0  0  0  0  0  0  0  0  0  0
    6.9848    3.6000    6.1071 H   0  0  0  0  0  0  0  0  0  0  0  0
    6.8166    2.7313    4.5903 H   0  0  0  0  0  0  0  0  0  0  0  0
    8.4028    0.6426    5.0139 C   0  0  0  0  0  0  0  0  0  0  0  0
    8.2783    1.5383    6.9746 H   0  0  0  0  0  0  0  0  0  0  0  0
    9.0512    2.5486    5.7425 H   0  0  0  0  0  0  0  0  0  0  0  0
    9.3500    0.1502    5.2184 H   0  0  0  0  0  0  0  0  0  0  0  0
    8.3973    0.9621    3.9767 H   0  0  0  0  0  0  0  0  0  0  0  0
    7.6061   -0.0853    5.1479 H   0  0  0  0  0  0  0  0  0  0  0  0
    4.6241    2.2837    4.5651 H   0  0  0  0  0  0  0  0  0  0  0  0
  1  3  1  0  0  0  0
  1  4  1  0  0  0  0
  1  5  1  0  0  0  0
  2  6  1  0  0  0  0
  2  7  1  0  0  0  0
  2  8  1  0  0  0  0
  1  9  1  0  0  0  0
  2 10  1  0  0  0  0
  9 11  1  0  0  0  0
 10 11  1  0  0  0  0
  9 12  2  0  0  0  0
  9 13  2  0  0  0  0
 10 14  2  0  0  0  0
 10 15  2  0  0  0  0
 16 18  1  0  0  0  0
 16 19  1  0  0  0  0
 16 20  1  0  0  0  0
 17 21  1  0  0  0  0
 17 22  1  0  0  0  0
 17 23  1  0  0  0  0
 16 24  1  0  0  0  0
 17 25  1  0  0  0  0
 24 26  1  0  0  0  0
 25 26  1  0  0  0  0
 24 27  2  0  0  0  0
 24 28  2  0  0  0  0
 25 29  2  0  0  0  0
 25 30  2  0  0  0  0
 31 32  2  0  0  0  0
 31 33  1  0  0  0  0
 31 34  1  0  0  0  0
 32 35  1  0  0  0  0
 32 36  1  0  0  0  0
 35 37  4  0  0  0  0
 37 38  4  0  0  0  0
 38 39  4  0  0  0  0
 35 40  4  0  0  0  0
 39 41  4  0  0  0  0
 40 41  4  0  0  0  0
 40 42  1  0  0  0  0
 41 43  1  0  0  0  0
 38 44  1  0  0  0  0
 37 45  1  0  0  0  0
 39 46  1  0  0  0  0
 46 47  1  0  0  0  0
 46 48  1  0  0  0  0
 46 49  1  0  0  0  0
 47 50  1  0  0  0  0
 47 51  1  0  0  0  0
 51 52  1  0  0  0  0
 51 53  1  0  0  0  0
 51 54  1  0  0  0  0
 50 55  1  0  0  0  0
 52 55  1  0  0  0  0
 52 56  1  0  0  0  0
 52 57  1  0  0  0  0
 50 58  1  0  0  0  0
 50 59  1  0  0  0  0
 55 60  1  0  0  0  0
 60 61  1  0  0  0  0
 60 62  1  0  0  0  0
 60 63  1  0  0  0  0
 61 64  1  0  0  0  0
 61 65  1  0  0  0  0
 61 66  1  0  0  0  0
 64 67  1  0  0  0  0
 64 68  1  0  0  0  0
 64 69  1  0  0  0  0
 67 70  1  0  0  0  0
 67 71  1  0  0  0  0
 67 72  1  0  0  0  0
 55 73  1  0  0  0  0
 74 75  2  0  0  0  0
 74 76  1  0  0  0  0
 74 77  1  0  0  0  0
 75 78  1  0  0  0  0
 75 79  1  0  0  0  0
 78 80  4  0  0  0  0
 80 81  4  0  0  0  0
 81 82  4  0  0  0  0
 78 83  4  0  0  0  0
 82 84  4  0  0  0  0
 83 84  4  0  0  0  0
 83 85  1  0  0  0  0
 84 86  1  0  0  0  0
 81 87  1  0  0  0  0
 80 88  1  0  0  0  0
 82 89  1  0  0  0  0
 89 90  1  0  0  0  0
 89 91  1  0  0  0  0
 89 92  1  0  0  0  0
 90 93  1  0  0  0  0
 90 94  1  0  0  0  0
 94 95  1  0  0  0  0
 94 96  1  0  0  0  0
 94 97  1  0  0  0  0
 93 98  1  0  0  0  0
 95 98  1  0  0  0  0
 95 99  1  0  0  0  0
 95100  1  0  0  0  0
 93101  1  0  0  0  0
 93102  1  0  0  0  0
 98103  1  0  0  0  0
103104  1  0  0  0  0
103105  1  0  0  0  0
103106  1  0  0  0  0
104107  1  0  0  0  0
104108  1  0  0  0  0
104109  1  0  0  0  0
107110  1  0  0  0  0
107111  1  0  0  0  0
107112  1  0  0  0  0
110113  1  0  0  0  0
110114  1  0  0  0  0
110115  1  0  0  0  0
 98116  1  0  0  0  0
M  END
