 xtb: 6.7.1 (edcfbbe)
          10212513543D

116116  0     0  0            999 V2000
    2.0021    9.9738    2.5478 C   0  0  0  0  0  0  0  0  0  0  0  0
   -0.4575    5.8232    4.1403 C   0  0  0  0  0  0  0  0  0  0  0  0
    0.7315   10.3570    2.5817 F   0  0  0  0  0  0  0  0  0  0  0  0
    2.7624   11.0358    2.8308 F   0  0  0  0  0  0  0  0  0  0  0  0
    2.2903    9.5758    1.3164 F   0  0  0  0  0  0  0  0  0  0  0  0
   -1.0547    6.7883    4.8366 F   0  0  0  0  0  0  0  0  0  0  0  0
   -1.0094    5.7669    2.9367 F   0  0  0  0  0  0  0  0  0  0  0  0
   -0.7212    4.6668    4.7660 F   0  0  0  0  0  0  0  0  0  0  0  0
    2.3303    8.6271    3.7983 S   0  0  0  0  0  0  0  0  0  0  0  0
    1.3860    6.1535    4.0374 S   0  0  0  0  0  0  0  0  0  0  0  0
    1.3744    7.5104    3.2525 N   0  0  0  0  0  0  0  0  0  0  0  0
    3.7340    8.3069    3.6646 O   0  0  0  0  0  0  0  0  0  0  0  0
    1.9951    9.1784    5.0771 O   0  0  0  0  0  0  0  0  0  0  0  0
    1.9366    5.0369    3.3401 O   0  0  0  0  0  0  0  0  0  0  0  0
    1.8094    6.2776    5.4164 O   0  0  0  0  0  0  0  0  0  0  0  0
   11.6424    7.3705    5.3790 C   0  0  0  0  0  0  0  0  0  0  0  0
    8.7207   11.1082    5.4748 C   0  0  0  0  0  0  0  0  0  0  0  0
   11.8739    6.0555    5.5319 F   0  0  0  0  0  0  0  0  0  0  0  0
   12.0975    7.6940    4.1814 F   0  0  0  0  0  0  0  0  0  0  0  0
   12.3655    7.9878    6.3118 F   0  0  0  0  0  0  0  0  0  0  0  0
    8.0028   10.4599    4.5508 F   0  0  0  0  0  0  0  0  0  0  0  0
    7.8724   11.3202    6.5016 F   0  0  0  0  0  0  0  0  0  0  0  0
    9.0334   12.3008    4.9752 F   0  0  0  0  0  0  0  0  0  0  0  0
    9.7880    7.6600    5.6187 S   0  0  0  0  0  0  0  0  0  0  0  0
   10.2474   10.1927    6.1478 S   0  0  0  0  0  0  0  0  0  0  0  0
    9.6305    8.8310    6.6700 N   0  0  0  0  0  0  0  0  0  0  0  0
    9.2294    7.9697    4.3380 O   0  0  0  0  0  0  0  0  0  0  0  0
    9.3342    6.4308    6.2125 O   0  0  0  0  0  0  0  0  0  0  0  0
   10.6318   11.0565    7.2138 O   0  0  0  0  0  0  0  0  0  0  0  0
   11.1223   10.0134    5.0364 O   0  0  0  0  0  0  0  0  0  0  0  0
   11.0096    5.0799    2.4305 C   0  0  0  0  0  0  0  0  0  0  0  0
    9.8473    5.6065    2.0654 C   0  0  0  0  0  0  0  0  0  0  0  0
   11.8924    5.1961    1.8254 H   0  0  0  0  0  0  0  0  0  0  0  0
   11.1372    4.5426    3.3545 H   0  0  0  0  0  0  0  0  0  0  0  0
    8.6081    5.5431    2.8276 C   0  0  0  0  0  0  0  0  0  0  0  0
    9.7895    6.1760    1.1469 H   0  0  0  0  0  0  0  0  0  0  0  0
    8.4082    4.6319    3.8623 C   0  0  0  0  0  0  0  0  0  0  0  0
    7.2429    4.6471    4.5994 C   0  0  0  0  0  0  0  0  0  0  0  0
    6.2429    5.5769    4.3339 C   0  0  0  0  0  0  0  0  0  0  0  0
    7.5794    6.4368    2.5300 C   0  0  0  0  0  0  0  0  0  0  0  0
    6.4194    6.4624    3.2772 C   0  0  0  0  0  0  0  0  0  0  0  0
    7.7104    7.1440    1.7262 H   0  0  0  0  0  0  0  0  0  0  0  0
    5.6362    7.1681    3.0386 H   0  0  0  0  0  0  0  0  0  0  0  0
    7.1211    3.9373    5.4060 H   0  0  0  0  0  0  0  0  0  0  0  0
    9.1729    3.9099    4.0991 H   0  0  0  0  0  0  0  0  0  0  0  0
    4.9955    5.6309    5.1740 C   0  0  0  0  0  0  0  0  0  0  0  0
    5.1331    6.3065    6.4938 N   0  0  0  0  0  0  0  0  0  0  0  0
    4.6604    4.6061    5.3774 H   0  0  0  0  0  0  0  0  0  0  0  0
    4.2002    6.1148    4.6052 H   0  0  0  0  0  0  0  0  0  0  0  0
    4.3688    7.5096    6.6216 C   0  0  0  0  0  0  0  0  0  0  0  0
    6.4709    6.7876    6.8317 C   0  0  0  0  0  0  0  0  0  0  0  0
    6.5916    8.1614    6.1503 C   0  0  0  0  0  0  0  0  0  0  0  0
    7.2688    6.1231    6.5127 H   0  0  0  0  0  0  0  0  0  0  0  0
    6.5205    6.8965    7.9184 H   0  0  0  0  0  0  0  0  0  0  0  0
    5.1798    8.5801    5.9399 N   0  0  0  0  0  0  0  0  0  0  0  0
    7.1156    8.0776    5.1994 H   0  0  0  0  0  0  0  0  0  0  0  0
    7.1326    8.8666    6.7752 H   0  0  0  0  0  0  0  0  0  0  0  0
    4.2997    7.7714    7.6813 H   0  0  0  0  0  0  0  0  0  0  0  0
    3.3713    7.4458    6.1851 H   0  0  0  0  0  0  0  0  0  0  0  0
    4.8310    9.9718    6.3031 C   0  0  0  0  0  0  0  0  0  0  0  0
    5.0409   10.3393    7.7676 C   0  0  0  0  0  0  0  0  0  0  0  0
    3.7805   10.1121    6.0333 H   0  0  0  0  0  0  0  0  0  0  0  0
    5.4408   10.6276    5.6798 H   0  0  0  0  0  0  0  0  0  0  0  0
    4.7698   11.8318    7.9665 C   0  0  0  0  0  0  0  0  0  0  0  0
    6.0666   10.1342    8.0758 H   0  0  0  0  0  0  0  0  0  0  0  0
    4.3611    9.7761    8.4092 H   0  0  0  0  0  0  0  0  0  0  0  0
    5.0032   12.2513    9.4120 C   0  0  0  0  0  0  0  0  0  0  0  0
    3.7407   12.0526    7.6780 H   0  0  0  0  0  0  0  0  0  0  0  0
    5.4345   12.4033    7.3192 H   0  0  0  0  0  0  0  0  0  0  0  0
    4.7881   13.3086    9.5372 H   0  0  0  0  0  0  0  0  0  0  0  0
    6.0389   12.0776    9.6913 H   0  0  0  0  0  0  0  0  0  0  0  0
    4.3613   11.6892   10.0869 H   0  0  0  0  0  0  0  0  0  0  0  0
    4.9274    8.4912    4.9349 H   0  0  0  0  0  0  0  0  0  0  0  0
    0.9080   -1.5348    4.3755 C   0  0  0  0  0  0  0  0  0  0  0  0
    1.5412   -0.3683    4.3742 C   0  0  0  0  0  0  0  0  0  0  0  0
    1.1615   -2.3093    3.6729 H   0  0  0  0  0  0  0  0  0  0  0  0
    0.1091   -1.7659    5.0595 H   0  0  0  0  0  0  0  0  0  0  0  0
    1.2805    0.7614    5.2590 C   0  0  0  0  0  0  0  0  0  0  0  0
    2.3215   -0.1910    3.6447 H   0  0  0  0  0  0  0  0  0  0  0  0
    0.4021    0.6999    6.3420 C   0  0  0  0  0  0  0  0  0  0  0  0
    0.1701    1.8080    7.1353 C   0  0  0  0  0  0  0  0  0  0  0  0
    0.8123    3.0151    6.8830 C   0  0  0  0  0  0  0  0  0  0  0  0
    1.9222    1.9764    5.0075 C   0  0  0  0  0  0  0  0  0  0  0  0
    1.7017    3.0817    5.8093 C   0  0  0  0  0  0  0  0  0  0  0  0
    2.5768    2.0738    4.1547 H   0  0  0  0  0  0  0  0  0  0  0  0
    2.1451    4.0266    5.5332 H   0  0  0  0  0  0  0  0  0  0  0  0
   -0.5416    1.7373    7.9457 H   0  0  0  0  0  0  0  0  0  0  0  0
   -0.1176   -0.2189    6.5623 H   0  0  0  0  0  0  0  0  0  0  0  0
    0.5864    4.2253    7.7552 C   0  0  0  0  0  0  0  0  0  0  0  0
    1.5868    4.4110    8.8096 N   0  0  0  0  0  0  0  0  0  0  0  0
   -0.3851    4.1587    8.2481 H   0  0  0  0  0  0  0  0  0  0  0  0
    0.6064    5.1284    7.1431 H   0  0  0  0  0  0  0  0  0  0  0  0
    2.8836    4.7508    8.3661 C   0  0  0  0  0  0  0  0  0  0  0  0
    1.7945    3.2783    9.6862 C   0  0  0  0  0  0  0  0  0  0  0  0
    2.9648    2.4755    9.0604 C   0  0  0  0  0  0  0  0  0  0  0  0
    0.8887    2.6853    9.7813 H   0  0  0  0  0  0  0  0  0  0  0  0
    2.0764    3.6481   10.6755 H   0  0  0  0  0  0  0  0  0  0  0  0
    3.5752    3.4095    8.0831 N   0  0  0  0  0  0  0  0  0  0  0  0
    2.6080    1.5796    8.5541 H   0  0  0  0  0  0  0  0  0  0  0  0
    3.7006    2.1970    9.8133 H   0  0  0  0  0  0  0  0  0  0  0  0
    3.4536    5.2263    9.1704 H   0  0  0  0  0  0  0  0  0  0  0  0
    2.8772    5.3807    7.4774 H   0  0  0  0  0  0  0  0  0  0  0  0
    5.0490    3.4623    8.1002 C   0  0  0  0  0  0  0  0  0  0  0  0
    5.6869    2.1459    7.6598 C   0  0  0  0  0  0  0  0  0  0  0  0
    5.3668    3.7060    9.1173 H   0  0  0  0  0  0  0  0  0  0  0  0
    5.3560    4.2801    7.4448 H   0  0  0  0  0  0  0  0  0  0  0  0
    5.2295    1.6586    6.2833 C   0  0  0  0  0  0  0  0  0  0  0  0
    5.4955    1.3619    8.3962 H   0  0  0  0  0  0  0  0  0  0  0  0
    6.7655    2.3085    7.6355 H   0  0  0  0  0  0  0  0  0  0  0  0
    6.0735    0.4781    5.8162 C   0  0  0  0  0  0  0  0  0  0  0  0
    5.3201    2.4652    5.5543 H   0  0  0  0  0  0  0  0  0  0  0  0
    4.1826    1.3435    6.3164 H   0  0  0  0  0  0  0  0  0  0  0  0
    7.1191    0.7633    5.7401 H   0  0  0  0  0  0  0  0  0  0  0  0
    5.7409    0.1407    4.8386 H   0  0  0  0  0  0  0  0  0  0  0  0
    5.9919   -0.3544    6.5114 H   0  0  0  0  0  0  0  0  0  0  0  0
    3.2488    3.1459    7.1334 H   0  0  0  0  0  0  0  0  0  0  0  0
  1  3  1  0  0  0  0
  1  4  1  0  0  0  0
  1  5  1  0  0  0  0
  2  6  1  0  0  0  0
  2  7  1  0  0  0  0
  2  8  1  0  0  0  0
  1  9  1  0  0  0  0
  2 10  1  0  0  0  0
  9 11  1  0  0  0  0
 10 11  1  0  0  0  0
  9 12  2  0  0  0  0
  9 13  2  0  0  0  0
 10 14  2  0  0  0  0
 10 15  2  0  0  0  0
 16 18  1  0  0  0  0
 16 19  1  0  0  0  0
 16 20  1  0  0  0  0
 17 21  1  0  0  0  0
 17 22  1  0  0  0  0
 17 23  1  0  0  0  0
 16 24  1  0  0  0  0
 17 25  1  0  0  0  0
 24 26  1  0  0  0  0
 25 26  1  0  0  0  0
 24 27  2  0  0  0  0
 24 28  2  0  0  0  0
 25 29  2  0  0  0  0
 25 30  2  0  0  0  0
 31 32  2  0  0  0  0
 31 33  1  0  0  0  0
 31 34  1  0  0  0  0
 32 35  1  0  0  0  0
 32 36  1  0  0  0  0
 35 37  4  0  0  0  0
 37 38  4  0  0  0  0
 38 39  4  0  0  0  0
 35 40  4  0  0  0  0
 39 41  4  0  0  0  0
 40 41  4  0  0  0  0
 40 42  1  0  0  0  0
 41 43  1  0  0  0  0
 38 44  1  0  0  0  0
 37 45  1  0  0  0  0
 39 46  1  0  0  0  0
 46 47  1  0  0  0  0
 46 48  1  0  0  0  0
 46 49  1  0  0  0  0
 47 50  1  0  0  0  0
 47 51  1  0  0  0  0
 51 52  1  0  0  0  0
 51 53  1  0  0  0  0
 51 54  1  0  0  0  0
 50 55  1  0  0  0  0
 52 55  1  0  0  0  0
 52 56  1  0  0  0  0
 52 57  1  0  0  0  0
 50 58  1  0  0  0  0
 50 59  1  0  0  0  0
 55 60  1  0  0  0  0
 60 61  1  0  0  0  0
 60 62  1  0  0  0  0
 60 63  1  0  0  0  0
 61 64  1  0  0  0  0
 61 65  1  0  0  0  0
 61 66  1  0  0  0  0
 64 67  1  0  0  0  0
 64 68  1  0  0  0  0
 64 69  1  0  0  0  0
 67 70  1  0  0  0  0
 67 71  1  0  0  0  0
 67 72  1  0  0  0  0
 55 73  1  0  0  0  0
 74 75  2  0  0  0  0
 74 76  1  0  0  0  0
 74 77  1  0  0  0  0
 75 78  1  0  0  0  0
 75 79  1  0  0  0  0
 78 80  4  0  0  0  0
 80 81  4  0  0  0  0
 81 82  4  0  0  0  0
 78 83  4  0  0  0  0
 82 84  4  0  0  0  0
 83 84  4  0  0  0  0
 83 85  1  0  0  0  0
 84 86  1  0  0  0  0
 81 87  1  0  0  0  0
 80 88  1  0  0  0  0
 82 89  1  0  0  0  0
 89 90  1  0  0  0  0
 89 91  1  0  0  0  0
 89 92  1  0  0  0  0
 90 93  1  0  0  0  0
 90 94  1  0  0  0  0
 94 95  1  0  0  0  0
 94 96  1  0  0  0  0
 94 97  1  0  0  0  0
 93 98  1  0  0  0  0
 95 98  1  0  0  0  0
 95 99  1  0  0  0  0
 95100  1  0  0  0  0
 93101  1  0  0  0  0
 93102  1  0  0  0  0
 98103  1  0  0  0  0
103104  1  0  0  0  0
103105  1  0  0  0  0
103106  1  0  0  0  0
104107  1  0  0  0  0
104108  1  0  0  0  0
104109  1  0  0  0  0
107110  1  0  0  0  0
107111  1  0  0  0  0
107112  1  0  0  0  0
110113  1  0  0  0  0
110114  1  0  0  0  0
110115  1  0  0  0  0
 98116  1  0  0  0  0
M  END
