 xtb: 6.7.1 (edcfbbe)
          10212513313D

116116  0     0  0            999 V2000
    1.8735    2.4876    7.1980 C   0  0  0  0  0  0  0  0  0  0  0  0
    0.6458    6.0222    6.5705 C   0  0  0  0  0  0  0  0  0  0  0  0
    2.2595    1.2976    7.6606 F   0  0  0  0  0  0  0  0  0  0  0  0
    1.2995    3.1288    8.2250 F   0  0  0  0  0  0  0  0  0  0  0  0
    0.9141    2.2683    6.2922 F   0  0  0  0  0  0  0  0  0  0  0  0
    0.1338    6.9155    7.4503 F   0  0  0  0  0  0  0  0  0  0  0  0
    0.3966    6.5238    5.3482 F   0  0  0  0  0  0  0  0  0  0  0  0
   -0.0830    4.9111    6.6945 F   0  0  0  0  0  0  0  0  0  0  0  0
    3.3623    3.3722    6.4119 S   0  0  0  0  0  0  0  0  0  0  0  0
    2.5368    5.8712    6.8954 S   0  0  0  0  0  0  0  0  0  0  0  0
    2.7660    4.7045    5.8637 N   0  0  0  0  0  0  0  0  0  0  0  0
    4.2246    3.5377    7.5679 O   0  0  0  0  0  0  0  0  0  0  0  0
    3.6862    2.4586    5.3822 O   0  0  0  0  0  0  0  0  0  0  0  0
    2.4866    5.5155    8.2817 O   0  0  0  0  0  0  0  0  0  0  0  0
    2.7927    7.2390    6.5219 O   0  0  0  0  0  0  0  0  0  0  0  0
    6.7267    6.7011    8.3821 C   0  0  0  0  0  0  0  0  0  0  0  0
    8.2396    3.1799    6.1236 C   0  0  0  0  0  0  0  0  0  0  0  0
    7.7505    6.4244    9.1939 F   0  0  0  0  0  0  0  0  0  0  0  0
    7.2460    7.1339    7.2200 F   0  0  0  0  0  0  0  0  0  0  0  0
    6.1084    7.7857    8.9209 F   0  0  0  0  0  0  0  0  0  0  0  0
    8.8272    4.3804    6.2321 F   0  0  0  0  0  0  0  0  0  0  0  0
    8.9129    2.3478    6.9198 F   0  0  0  0  0  0  0  0  0  0  0  0
    8.4441    2.7686    4.8646 F   0  0  0  0  0  0  0  0  0  0  0  0
    5.4880    5.2483    8.1197 S   0  0  0  0  0  0  0  0  0  0  0  0
    6.3913    3.2690    6.5565 S   0  0  0  0  0  0  0  0  0  0  0  0
    6.6042    4.2165    7.8133 N   0  0  0  0  0  0  0  0  0  0  0  0
    4.9224    5.2683    9.4408 O   0  0  0  0  0  0  0  0  0  0  0  0
    4.7326    5.8865    7.0557 O   0  0  0  0  0  0  0  0  0  0  0  0
    6.0822    1.9033    6.7779 O   0  0  0  0  0  0  0  0  0  0  0  0
    5.8415    3.9908    5.4497 O   0  0  0  0  0  0  0  0  0  0  0  0
    7.7556    2.0454   10.1203 C   0  0  0  0  0  0  0  0  0  0  0  0
    7.1178    1.8901   11.2719 C   0  0  0  0  0  0  0  0  0  0  0  0
    8.7410    1.6378    9.9669 H   0  0  0  0  0  0  0  0  0  0  0  0
    7.3332    2.6006    9.2977 H   0  0  0  0  0  0  0  0  0  0  0  0
    5.7860    2.4175   11.5570 C   0  0  0  0  0  0  0  0  0  0  0  0
    7.5894    1.3587   12.0940 H   0  0  0  0  0  0  0  0  0  0  0  0
    5.4238    2.6999   12.8760 C   0  0  0  0  0  0  0  0  0  0  0  0
    4.1791    3.2168   13.1739 C   0  0  0  0  0  0  0  0  0  0  0  0
    3.2539    3.4608   12.1627 C   0  0  0  0  0  0  0  0  0  0  0  0
    4.8484    2.6387   10.5488 C   0  0  0  0  0  0  0  0  0  0  0  0
    3.6039    3.1566   10.8514 C   0  0  0  0  0  0  0  0  0  0  0  0
    5.0843    2.4061    9.5231 H   0  0  0  0  0  0  0  0  0  0  0  0
    2.9056    3.3294   10.0489 H   0  0  0  0  0  0  0  0  0  0  0  0
    3.9163    3.4169   14.2050 H   0  0  0  0  0  0  0  0  0  0  0  0
    6.1317    2.5180   13.6727 H   0  0  0  0  0  0  0  0  0  0  0  0
    1.8933    4.0209   12.4945 C   0  0  0  0  0  0  0  0  0  0  0  0
    1.7321    5.4704   12.3722 N   0  0  0  0  0  0  0  0  0  0  0  0
    1.6418    3.7800   13.5326 H   0  0  0  0  0  0  0  0  0  0  0  0
    1.1373    3.5686   11.8505 H   0  0  0  0  0  0  0  0  0  0  0  0
    1.6187    6.0150   11.0576 C   0  0  0  0  0  0  0  0  0  0  0  0
    2.7415    6.2802   13.0217 C   0  0  0  0  0  0  0  0  0  0  0  0
    3.7626    6.6228   11.9208 C   0  0  0  0  0  0  0  0  0  0  0  0
    3.1929    5.7475   13.8549 H   0  0  0  0  0  0  0  0  0  0  0  0
    2.2668    7.1917   13.4006 H   0  0  0  0  0  0  0  0  0  0  0  0
    2.9660    6.5799   10.6754 N   0  0  0  0  0  0  0  0  0  0  0  0
    4.5468    5.8686   11.8539 H   0  0  0  0  0  0  0  0  0  0  0  0
    4.2139    7.6025   12.0560 H   0  0  0  0  0  0  0  0  0  0  0  0
    0.9067    6.8480   11.0695 H   0  0  0  0  0  0  0  0  0  0  0  0
    1.3074    5.2863   10.3103 H   0  0  0  0  0  0  0  0  0  0  0  0
    2.8874    7.8359    9.9031 C   0  0  0  0  0  0  0  0  0  0  0  0
    2.4082    9.0633   10.6772 C   0  0  0  0  0  0  0  0  0  0  0  0
    2.2148    7.6387    9.0680 H   0  0  0  0  0  0  0  0  0  0  0  0
    3.8745    8.0167    9.4820 H   0  0  0  0  0  0  0  0  0  0  0  0
    1.7474   10.0611    9.7212 C   0  0  0  0  0  0  0  0  0  0  0  0
    3.2454    9.5525   11.1791 H   0  0  0  0  0  0  0  0  0  0  0  0
    1.6794    8.7833   11.4400 H   0  0  0  0  0  0  0  0  0  0  0  0
    2.6778   10.4966    8.5935 C   0  0  0  0  0  0  0  0  0  0  0  0
    1.4321   10.9370   10.2936 H   0  0  0  0  0  0  0  0  0  0  0  0
    0.8563    9.6028    9.2878 H   0  0  0  0  0  0  0  0  0  0  0  0
    2.2059   11.2820    8.0092 H   0  0  0  0  0  0  0  0  0  0  0  0
    2.9006    9.6639    7.9312 H   0  0  0  0  0  0  0  0  0  0  0  0
    3.6092   10.8843    8.9988 H   0  0  0  0  0  0  0  0  0  0  0  0
    3.4302    5.9102   10.0189 H   0  0  0  0  0  0  0  0  0  0  0  0
    6.3394    3.2192    0.5228 C   0  0  0  0  0  0  0  0  0  0  0  0
    5.5729    3.4761    1.5770 C   0  0  0  0  0  0  0  0  0  0  0  0
    7.0069    2.3751    0.5084 H   0  0  0  0  0  0  0  0  0  0  0  0
    6.3412    3.8335   -0.3634 H   0  0  0  0  0  0  0  0  0  0  0  0
    4.6614    4.6058    1.7198 C   0  0  0  0  0  0  0  0  0  0  0  0
    5.6249    2.8462    2.4555 H   0  0  0  0  0  0  0  0  0  0  0  0
    4.1407    4.8787    2.9881 C   0  0  0  0  0  0  0  0  0  0  0  0
    3.3415    5.9869    3.2023 C   0  0  0  0  0  0  0  0  0  0  0  0
    2.9996    6.8335    2.1489 C   0  0  0  0  0  0  0  0  0  0  0  0
    4.2975    5.4437    0.6623 C   0  0  0  0  0  0  0  0  0  0  0  0
    3.4780    6.5371    0.8738 C   0  0  0  0  0  0  0  0  0  0  0  0
    4.6504    5.2365   -0.3352 H   0  0  0  0  0  0  0  0  0  0  0  0
    3.1924    7.1604    0.0368 H   0  0  0  0  0  0  0  0  0  0  0  0
    2.9603    6.1587    4.1963 H   0  0  0  0  0  0  0  0  0  0  0  0
    4.3680    4.2379    3.8250 H   0  0  0  0  0  0  0  0  0  0  0  0
    2.1997    8.0831    2.4161 C   0  0  0  0  0  0  0  0  0  0  0  0
    2.9937    9.1876    2.9747 N   0  0  0  0  0  0  0  0  0  0  0  0
    1.3904    7.8729    3.1142 H   0  0  0  0  0  0  0  0  0  0  0  0
    1.7653    8.4557    1.4823 H   0  0  0  0  0  0  0  0  0  0  0  0
    4.3069    9.2900    2.4679 C   0  0  0  0  0  0  0  0  0  0  0  0
    3.1616    9.2592    4.4187 C   0  0  0  0  0  0  0  0  0  0  0  0
    4.5948    8.7534    4.7332 C   0  0  0  0  0  0  0  0  0  0  0  0
    2.4256    8.6574    4.9457 H   0  0  0  0  0  0  0  0  0  0  0  0
    3.0498   10.3028    4.7269 H   0  0  0  0  0  0  0  0  0  0  0  0
    5.1703    8.4486    3.4021 N   0  0  0  0  0  0  0  0  0  0  0  0
    4.5596    7.8739    5.3768 H   0  0  0  0  0  0  0  0  0  0  0  0
    5.1916    9.5305    5.2111 H   0  0  0  0  0  0  0  0  0  0  0  0
    4.6757   10.3195    2.5584 H   0  0  0  0  0  0  0  0  0  0  0  0
    4.3963    8.9440    1.4377 H   0  0  0  0  0  0  0  0  0  0  0  0
    6.6109    8.6912    3.2254 C   0  0  0  0  0  0  0  0  0  0  0  0
    7.4849    7.6258    3.8756 C   0  0  0  0  0  0  0  0  0  0  0  0
    6.8397    9.6806    3.6327 H   0  0  0  0  0  0  0  0  0  0  0  0
    6.8087    8.7072    2.1483 H   0  0  0  0  0  0  0  0  0  0  0  0
    7.2423    6.2255    3.2963 C   0  0  0  0  0  0  0  0  0  0  0  0
    7.3324    7.6124    4.9512 H   0  0  0  0  0  0  0  0  0  0  0  0
    8.5213    7.9160    3.6945 H   0  0  0  0  0  0  0  0  0  0  0  0
    8.5507    5.4593    3.1388 C   0  0  0  0  0  0  0  0  0  0  0  0
    6.7734    6.3023    2.3106 H   0  0  0  0  0  0  0  0  0  0  0  0
    6.5822    5.6532    3.9485 H   0  0  0  0  0  0  0  0  0  0  0  0
    9.0733    5.4166    4.0869 H   0  0  0  0  0  0  0  0  0  0  0  0
    9.1963    5.9425    2.4068 H   0  0  0  0  0  0  0  0  0  0  0  0
    8.3491    4.4442    2.8121 H   0  0  0  0  0  0  0  0  0  0  0  0
    4.9508    7.4532    3.2068 H   0  0  0  0  0  0  0  0  0  0  0  0
  1  3  1  0  0  0  0
  1  4  1  0  0  0  0
  1  5  1  0  0  0  0
  2  6  1  0  0  0  0
  2  7  1  0  0  0  0
  2  8  1  0  0  0  0
  1  9  1  0  0  0  0
  2 10  1  0  0  0  0
  9 11  1  0  0  0  0
 10 11  1  0  0  0  0
  9 12  2  0  0  0  0
  9 13  2  0  0  0  0
 10 14  2  0  0  0  0
 10 15  2  0  0  0  0
 16 18  1  0  0  0  0
 16 19  1  0  0  0  0
 16 20  1  0  0  0  0
 17 21  1  0  0  0  0
 17 22  1  0  0  0  0
 17 23  1  0  0  0  0
 16 24  1  0  0  0  0
 17 25  1  0  0  0  0
 24 26  1  0  0  0  0
 25 26  1  0  0  0  0
 24 27  2  0  0  0  0
 24 28  2  0  0  0  0
 25 29  2  0  0  0  0
 25 30  2  0  0  0  0
 31 32  2  0  0  0  0
 31 33  1  0  0  0  0
 31 34  1  0  0  0  0
 32 35  1  0  0  0  0
 32 36  1  0  0  0  0
 35 37  4  0  0  0  0
 37 38  4  0  0  0  0
 38 39  4  0  0  0  0
 35 40  4  0  0  0  0
 39 41  4  0  0  0  0
 40 41  4  0  0  0  0
 40 42  1  0  0  0  0
 41 43  1  0  0  0  0
 38 44  1  0  0  0  0
 37 45  1  0  0  0  0
 39 46  1  0  0  0  0
 46 47  1  0  0  0  0
 46 48  1  0  0  0  0
 46 49  1  0  0  0  0
 47 50  1  0  0  0  0
 47 51  1  0  0  0  0
 51 52  1  0  0  0  0
 51 53  1  0  0  0  0
 51 54  1  0  0  0  0
 50 55  1  0  0  0  0
 52 55  1  0  0  0  0
 52 56  1  0  0  0  0
 52 57  1  0  0  0  0
 50 58  1  0  0  0  0
 50 59  1  0  0  0  0
 55 60  1  0  0  0  0
 60 61  1  0  0  0  0
 60 62  1  0  0  0  0
 60 63  1  0  0  0  0
 61 64  1  0  0  0  0
 61 65  1  0  0  0  0
 61 66  1  0  0  0  0
 64 67  1  0  0  0  0
 64 68  1  0  0  0  0
 64 69  1  0  0  0  0
 67 70  1  0  0  0  0
 67 71  1  0  0  0  0
 67 72  1  0  0  0  0
 55 73  1  0  0  0  0
 74 75  2  0  0  0  0
 74 76  1  0  0  0  0
 74 77  1  0  0  0  0
 75 78  1  0  0  0  0
 75 79  1  0  0  0  0
 78 80  4  0  0  0  0
 80 81  4  0  0  0  0
 81 82  4  0  0  0  0
 78 83  4  0  0  0  0
 82 84  4  0  0  0  0
 83 84  4  0  0  0  0
 83 85  1  0  0  0  0
 84 86  1  0  0  0  0
 81 87  1  0  0  0  0
 80 88  1  0  0  0  0
 82 89  1  0  0  0  0
 89 90  1  0  0  0  0
 89 91  1  0  0  0  0
 89 92  1  0  0  0  0
 90 93  1  0  0  0  0
 90 94  1  0  0  0  0
 94 95  1  0  0  0  0
 94 96  1  0  0  0  0
 94 97  1  0  0  0  0
 93 98  1  0  0  0  0
 95 98  1  0  0  0  0
 95 99  1  0  0  0  0
 95100  1  0  0  0  0
 93101  1  0  0  0  0
 93102  1  0  0  0  0
 98103  1  0  0  0  0
103104  1  0  0  0  0
103105  1  0  0  0  0
103106  1  0  0  0  0
104107  1  0  0  0  0
104108  1  0  0  0  0
104109  1  0  0  0  0
107110  1  0  0  0  0
107111  1  0  0  0  0
107112  1  0  0  0  0
110113  1  0  0  0  0
110114  1  0  0  0  0
110115  1  0  0  0  0
 98116  1  0  0  0  0
M  END
