 xtb: 6.7.1 (edcfbbe)
          10212513413D

116116  0     0  0            999 V2000
    5.4695    4.6629    8.8455 C   0  0  0  0  0  0  0  0  0  0  0  0
    7.7390    8.2720    7.4500 C   0  0  0  0  0  0  0  0  0  0  0  0
    6.2005    4.7788    9.9404 F   0  0  0  0  0  0  0  0  0  0  0  0
    4.2906    5.2585    9.0246 F   0  0  0  0  0  0  0  0  0  0  0  0
    5.2133    3.3489    8.7047 F   0  0  0  0  0  0  0  0  0  0  0  0
    7.7907    9.6056    7.3911 F   0  0  0  0  0  0  0  0  0  0  0  0
    8.5862    7.8924    8.3932 F   0  0  0  0  0  0  0  0  0  0  0  0
    8.1699    7.8088    6.2762 F   0  0  0  0  0  0  0  0  0  0  0  0
    6.3594    5.2507    7.2724 S   0  0  0  0  0  0  0  0  0  0  0  0
    5.9585    7.7384    7.8029 S   0  0  0  0  0  0  0  0  0  0  0  0
    5.6223    6.5505    6.7897 N   0  0  0  0  0  0  0  0  0  0  0  0
    7.7062    5.4837    7.6963 O   0  0  0  0  0  0  0  0  0  0  0  0
    6.1853    4.1388    6.3772 O   0  0  0  0  0  0  0  0  0  0  0  0
    5.1553    8.8802    7.4970 O   0  0  0  0  0  0  0  0  0  0  0  0
    5.9649    7.2623    9.1474 O   0  0  0  0  0  0  0  0  0  0  0  0
    4.5205    3.0012    2.5652 C   0  0  0  0  0  0  0  0  0  0  0  0
    4.8862    5.7501   -0.6261 C   0  0  0  0  0  0  0  0  0  0  0  0
    4.3637    2.9523    1.2451 F   0  0  0  0  0  0  0  0  0  0  0  0
    5.0815    1.8325    2.9176 F   0  0  0  0  0  0  0  0  0  0  0  0
    3.3141    3.0296    3.1291 F   0  0  0  0  0  0  0  0  0  0  0  0
    5.9546    6.3947   -1.0915 F   0  0  0  0  0  0  0  0  0  0  0  0
    4.9909    4.4769   -0.9873 F   0  0  0  0  0  0  0  0  0  0  0  0
    3.8109    6.2627   -1.2282 F   0  0  0  0  0  0  0  0  0  0  0  0
    5.6806    4.4239    3.0898 S   0  0  0  0  0  0  0  0  0  0  0  0
    4.7703    5.9851    1.2378 S   0  0  0  0  0  0  0  0  0  0  0  0
    5.9966    5.1073    1.7190 N   0  0  0  0  0  0  0  0  0  0  0  0
    4.9359    5.2434    4.0018 O   0  0  0  0  0  0  0  0  0  0  0  0
    6.8037    3.7019    3.6102 O   0  0  0  0  0  0  0  0  0  0  0  0
    3.5137    5.4391    1.6663 O   0  0  0  0  0  0  0  0  0  0  0  0
    4.9270    7.3961    1.4038 O   0  0  0  0  0  0  0  0  0  0  0  0
   10.3919    7.1274   -1.2637 C   0  0  0  0  0  0  0  0  0  0  0  0
    9.3655    7.0460   -0.4253 C   0  0  0  0  0  0  0  0  0  0  0  0
   10.2710    7.5167   -2.2601 H   0  0  0  0  0  0  0  0  0  0  0  0
   11.3902    6.8227   -0.9944 H   0  0  0  0  0  0  0  0  0  0  0  0
    9.4132    6.5468    0.9449 C   0  0  0  0  0  0  0  0  0  0  0  0
    8.3893    7.3898   -0.7423 H   0  0  0  0  0  0  0  0  0  0  0  0
    8.3716    6.8612    1.8188 C   0  0  0  0  0  0  0  0  0  0  0  0
    8.3811    6.4092    3.1234 C   0  0  0  0  0  0  0  0  0  0  0  0
    9.4321    5.6344    3.5950 C   0  0  0  0  0  0  0  0  0  0  0  0
   10.4608    5.7586    1.4240 C   0  0  0  0  0  0  0  0  0  0  0  0
   10.4718    5.3131    2.7302 C   0  0  0  0  0  0  0  0  0  0  0  0
   11.2701    5.4852    0.7635 H   0  0  0  0  0  0  0  0  0  0  0  0
   11.2900    4.7081    3.0925 H   0  0  0  0  0  0  0  0  0  0  0  0
    7.5642    6.6512    3.7866 H   0  0  0  0  0  0  0  0  0  0  0  0
    7.5445    7.4595    1.4679 H   0  0  0  0  0  0  0  0  0  0  0  0
    9.4451    5.1947    5.0315 C   0  0  0  0  0  0  0  0  0  0  0  0
   10.0452    3.8726    5.1990 N   0  0  0  0  0  0  0  0  0  0  0  0
    8.4249    5.2425    5.4302 H   0  0  0  0  0  0  0  0  0  0  0  0
   10.0599    5.8926    5.6080 H   0  0  0  0  0  0  0  0  0  0  0  0
    9.3213    2.8199    4.5853 C   0  0  0  0  0  0  0  0  0  0  0  0
   10.1738    3.4499    6.5799 C   0  0  0  0  0  0  0  0  0  0  0  0
    8.8916    2.6437    6.9042 C   0  0  0  0  0  0  0  0  0  0  0  0
   10.2801    4.3065    7.2413 H   0  0  0  0  0  0  0  0  0  0  0  0
   11.0597    2.8134    6.6684 H   0  0  0  0  0  0  0  0  0  0  0  0
    8.2574    2.3971    5.5887 N   0  0  0  0  0  0  0  0  0  0  0  0
    8.2249    3.2255    7.5371 H   0  0  0  0  0  0  0  0  0  0  0  0
    9.1310    1.6942    7.3829 H   0  0  0  0  0  0  0  0  0  0  0  0
    9.9779    1.9534    4.4421 H   0  0  0  0  0  0  0  0  0  0  0  0
    8.8500    3.1207    3.6517 H   0  0  0  0  0  0  0  0  0  0  0  0
    7.7857    1.0204    5.3627 C   0  0  0  0  0  0  0  0  0  0  0  0
    6.7219    0.5493    6.3544 C   0  0  0  0  0  0  0  0  0  0  0  0
    8.6620    0.3653    5.4213 H   0  0  0  0  0  0  0  0  0  0  0  0
    7.3783    0.9815    4.3504 H   0  0  0  0  0  0  0  0  0  0  0  0
    5.3153    1.0460    6.0249 C   0  0  0  0  0  0  0  0  0  0  0  0
    6.9800    0.8608    7.3669 H   0  0  0  0  0  0  0  0  0  0  0  0
    6.7182   -0.5435    6.3388 H   0  0  0  0  0  0  0  0  0  0  0  0
    4.3086    0.5456    7.0543 C   0  0  0  0  0  0  0  0  0  0  0  0
    5.0333    0.6798    5.0381 H   0  0  0  0  0  0  0  0  0  0  0  0
    5.3051    2.1352    6.0027 H   0  0  0  0  0  0  0  0  0  0  0  0
    4.5353    0.9494    8.0365 H   0  0  0  0  0  0  0  0  0  0  0  0
    4.3272   -0.5410    7.1117 H   0  0  0  0  0  0  0  0  0  0  0  0
    3.3038    0.8581    6.7860 H   0  0  0  0  0  0  0  0  0  0  0  0
    7.4512    3.0439    5.4677 H   0  0  0  0  0  0  0  0  0  0  0  0
   -1.1704   -0.6374    8.4990 C   0  0  0  0  0  0  0  0  0  0  0  0
   -0.5798    0.4475    8.9860 C   0  0  0  0  0  0  0  0  0  0  0  0
   -1.7318   -1.3009    9.1340 H   0  0  0  0  0  0  0  0  0  0  0  0
   -1.1174   -0.9129    7.4598 H   0  0  0  0  0  0  0  0  0  0  0  0
    0.2098    1.4195    8.2403 C   0  0  0  0  0  0  0  0  0  0  0  0
   -0.6622    0.6561   10.0461 H   0  0  0  0  0  0  0  0  0  0  0  0
    0.8952    2.4128    8.9412 C   0  0  0  0  0  0  0  0  0  0  0  0
    1.6684    3.3498    8.2831 C   0  0  0  0  0  0  0  0  0  0  0  0
    1.7814    3.3275    6.8993 C   0  0  0  0  0  0  0  0  0  0  0  0
    0.3161    1.4121    6.8478 C   0  0  0  0  0  0  0  0  0  0  0  0
    1.0860    2.3511    6.1923 C   0  0  0  0  0  0  0  0  0  0  0  0
   -0.2098    0.6654    6.2730 H   0  0  0  0  0  0  0  0  0  0  0  0
    1.1606    2.3341    5.1154 H   0  0  0  0  0  0  0  0  0  0  0  0
    2.1926    4.0983    8.8575 H   0  0  0  0  0  0  0  0  0  0  0  0
    0.8241    2.4444   10.0192 H   0  0  0  0  0  0  0  0  0  0  0  0
    2.5974    4.3453    6.1482 C   0  0  0  0  0  0  0  0  0  0  0  0
    1.7029    5.3948    5.6536 N   0  0  0  0  0  0  0  0  0  0  0  0
    3.0674    3.8711    5.2892 H   0  0  0  0  0  0  0  0  0  0  0  0
    3.3982    4.7559    6.7747 H   0  0  0  0  0  0  0  0  0  0  0  0
    2.1259    6.0772    4.4871 C   0  0  0  0  0  0  0  0  0  0  0  0
    1.4819    6.4668    6.6025 C   0  0  0  0  0  0  0  0  0  0  0  0
    2.5992    7.5015    6.3171 C   0  0  0  0  0  0  0  0  0  0  0  0
    1.5039    6.0961    7.6243 H   0  0  0  0  0  0  0  0  0  0  0  0
    0.4969    6.9023    6.4114 H   0  0  0  0  0  0  0  0  0  0  0  0
    3.0919    7.1528    4.9617 N   0  0  0  0  0  0  0  0  0  0  0  0
    3.4143    7.4385    7.0344 H   0  0  0  0  0  0  0  0  0  0  0  0
    2.2135    8.5192    6.3199 H   0  0  0  0  0  0  0  0  0  0  0  0
    1.2712    6.5995    4.0418 H   0  0  0  0  0  0  0  0  0  0  0  0
    2.6013    5.4440    3.7405 H   0  0  0  0  0  0  0  0  0  0  0  0
    3.1786    8.2872    4.0228 C   0  0  0  0  0  0  0  0  0  0  0  0
    4.2249    9.3226    4.4222 C   0  0  0  0  0  0  0  0  0  0  0  0
    2.1857    8.7465    3.9778 H   0  0  0  0  0  0  0  0  0  0  0  0
    3.4332    7.8871    3.0376 H   0  0  0  0  0  0  0  0  0  0  0  0
    5.6514    8.8290    4.1887 C   0  0  0  0  0  0  0  0  0  0  0  0
    4.1184    9.6044    5.4710 H   0  0  0  0  0  0  0  0  0  0  0  0
    4.0561   10.2096    3.8083 H   0  0  0  0  0  0  0  0  0  0  0  0
    6.6480    9.9700    4.3536 C   0  0  0  0  0  0  0  0  0  0  0  0
    5.7270    8.4184    3.1815 H   0  0  0  0  0  0  0  0  0  0  0  0
    5.8772    8.0352    4.9047 H   0  0  0  0  0  0  0  0  0  0  0  0
    6.4632   10.7416    3.6094 H   0  0  0  0  0  0  0  0  0  0  0  0
    7.6651    9.6101    4.2264 H   0  0  0  0  0  0  0  0  0  0  0  0
    6.5539   10.4135    5.3420 H   0  0  0  0  0  0  0  0  0  0  0  0
    4.0229    6.7087    5.0274 H   0  0  0  0  0  0  0  0  0  0  0  0
  1  3  1  0  0  0  0
  1  4  1  0  0  0  0
  1  5  1  0  0  0  0
  2  6  1  0  0  0  0
  2  7  1  0  0  0  0
  2  8  1  0  0  0  0
  1  9  1  0  0  0  0
  2 10  1  0  0  0  0
  9 11  1  0  0  0  0
 10 11  1  0  0  0  0
  9 12  2  0  0  0  0
  9 13  2  0  0  0  0
 10 14  2  0  0  0  0
 10 15  2  0  0  0  0
 16 18  1  0  0  0  0
 16 19  1  0  0  0  0
 16 20  1  0  0  0  0
 17 21  1  0  0  0  0
 17 22  1  0  0  0  0
 17 23  1  0  0  0  0
 16 24  1  0  0  0  0
 17 25  1  0  0  0  0
 24 26  1  0  0  0  0
 25 26  1  0  0  0  0
 24 27  2  0  0  0  0
 24 28  2  0  0  0  0
 25 29  2  0  0  0  0
 25 30  2  0  0  0  0
 31 32  2  0  0  0  0
 31 33  1  0  0  0  0
 31 34  1  0  0  0  0
 32 35  1  0  0  0  0
 32 36  1  0  0  0  0
 35 37  4  0  0  0  0
 37 38  4  0  0  0  0
 38 39  4  0  0  0  0
 35 40  4  0  0  0  0
 39 41  4  0  0  0  0
 40 41  4  0  0  0  0
 40 42  1  0  0  0  0
 41 43  1  0  0  0  0
 38 44  1  0  0  0  0
 37 45  1  0  0  0  0
 39 46  1  0  0  0  0
 46 47  1  0  0  0  0
 46 48  1  0  0  0  0
 46 49  1  0  0  0  0
 47 50  1  0  0  0  0
 47 51  1  0  0  0  0
 51 52  1  0  0  0  0
 51 53  1  0  0  0  0
 51 54  1  0  0  0  0
 50 55  1  0  0  0  0
 52 55  1  0  0  0  0
 52 56  1  0  0  0  0
 52 57  1  0  0  0  0
 50 58  1  0  0  0  0
 50 59  1  0  0  0  0
 55 60  1  0  0  0  0
 60 61  1  0  0  0  0
 60 62  1  0  0  0  0
 60 63  1  0  0  0  0
 61 64  1  0  0  0  0
 61 65  1  0  0  0  0
 61 66  1  0  0  0  0
 64 67  1  0  0  0  0
 64 68  1  0  0  0  0
 64 69  1  0  0  0  0
 67 70  1  0  0  0  0
 67 71  1  0  0  0  0
 67 72  1  0  0  0  0
 55 73  1  0  0  0  0
 74 75  2  0  0  0  0
 74 76  1  0  0  0  0
 74 77  1  0  0  0  0
 75 78  1  0  0  0  0
 75 79  1  0  0  0  0
 78 80  4  0  0  0  0
 80 81  4  0  0  0  0
 81 82  4  0  0  0  0
 78 83  4  0  0  0  0
 82 84  4  0  0  0  0
 83 84  4  0  0  0  0
 83 85  1  0  0  0  0
 84 86  1  0  0  0  0
 81 87  1  0  0  0  0
 80 88  1  0  0  0  0
 82 89  1  0  0  0  0
 89 90  1  0  0  0  0
 89 91  1  0  0  0  0
 89 92  1  0  0  0  0
 90 93  1  0  0  0  0
 90 94  1  0  0  0  0
 94 95  1  0  0  0  0
 94 96  1  0  0  0  0
 94 97  1  0  0  0  0
 93 98  1  0  0  0  0
 95 98  1  0  0  0  0
 95 99  1  0  0  0  0
 95100  1  0  0  0  0
 93101  1  0  0  0  0
 93102  1  0  0  0  0
 98103  1  0  0  0  0
103104  1  0  0  0  0
103105  1  0  0  0  0
103106  1  0  0  0  0
104107  1  0  0  0  0
104108  1  0  0  0  0
104109  1  0  0  0  0
107110  1  0  0  0  0
107111  1  0  0  0  0
107112  1  0  0  0  0
110113  1  0  0  0  0
110114  1  0  0  0  0
110115  1  0  0  0  0
 98116  1  0  0  0  0
M  END
