 xtb: 6.7.1 (edcfbbe)
          10212513553D

116116  0     0  0            999 V2000
    5.5852    8.4963   10.3190 C   0  0  0  0  0  0  0  0  0  0  0  0
    3.0339   10.1331    6.1523 C   0  0  0  0  0  0  0  0  0  0  0  0
    6.3576    7.5206    9.8178 F   0  0  0  0  0  0  0  0  0  0  0  0
    6.1800    8.9333   11.4292 F   0  0  0  0  0  0  0  0  0  0  0  0
    4.4313    7.9284   10.6792 F   0  0  0  0  0  0  0  0  0  0  0  0
    1.9603    9.4262    6.4923 F   0  0  0  0  0  0  0  0  0  0  0  0
    3.0930   11.1715    6.9990 F   0  0  0  0  0  0  0  0  0  0  0  0
    2.8366   10.6466    4.9453 F   0  0  0  0  0  0  0  0  0  0  0  0
    5.3895    9.8444    9.0093 S   0  0  0  0  0  0  0  0  0  0  0  0
    4.6742    9.2511    6.4505 S   0  0  0  0  0  0  0  0  0  0  0  0
    4.5893    8.9384    7.9817 N   0  0  0  0  0  0  0  0  0  0  0  0
    4.6404   10.8854    9.6258 O   0  0  0  0  0  0  0  0  0  0  0  0
    6.7430   10.1118    8.6274 O   0  0  0  0  0  0  0  0  0  0  0  0
    5.6353   10.2504    6.1117 O   0  0  0  0  0  0  0  0  0  0  0  0
    4.7320    7.9891    5.7498 O   0  0  0  0  0  0  0  0  0  0  0  0
    6.0670    5.1254    1.9561 C   0  0  0  0  0  0  0  0  0  0  0  0
    3.1947    8.3079    1.6979 C   0  0  0  0  0  0  0  0  0  0  0  0
    7.0203    4.8956    1.0540 F   0  0  0  0  0  0  0  0  0  0  0  0
    6.2748    4.2729    2.9751 F   0  0  0  0  0  0  0  0  0  0  0  0
    4.9055    4.7742    1.4025 F   0  0  0  0  0  0  0  0  0  0  0  0
    3.7856    9.2376    0.9579 F   0  0  0  0  0  0  0  0  0  0  0  0
    3.2905    7.1354    1.0481 F   0  0  0  0  0  0  0  0  0  0  0  0
    1.8890    8.6063    1.7309 F   0  0  0  0  0  0  0  0  0  0  0  0
    6.0417    6.9027    2.6215 S   0  0  0  0  0  0  0  0  0  0  0  0
    3.8971    8.1713    3.4674 S   0  0  0  0  0  0  0  0  0  0  0  0
    4.6585    6.7835    3.3594 N   0  0  0  0  0  0  0  0  0  0  0  0
    7.2100    6.9341    3.4562 O   0  0  0  0  0  0  0  0  0  0  0  0
    6.0518    7.7575    1.4822 O   0  0  0  0  0  0  0  0  0  0  0  0
    2.6992    8.0373    4.2364 O   0  0  0  0  0  0  0  0  0  0  0  0
    4.7290    9.3225    3.5714 O   0  0  0  0  0  0  0  0  0  0  0  0
   10.7639    4.2115    2.3675 C   0  0  0  0  0  0  0  0  0  0  0  0
   10.1698    5.0984    1.5790 C   0  0  0  0  0  0  0  0  0  0  0  0
   10.6732    3.1542    2.1881 H   0  0  0  0  0  0  0  0  0  0  0  0
   11.3498    4.4969    3.2248 H   0  0  0  0  0  0  0  0  0  0  0  0
   10.2170    6.5467    1.7403 C   0  0  0  0  0  0  0  0  0  0  0  0
    9.5646    4.7549    0.7515 H   0  0  0  0  0  0  0  0  0  0  0  0
    9.2508    7.3383    1.1188 C   0  0  0  0  0  0  0  0  0  0  0  0
    9.2548    8.7114    1.2623 C   0  0  0  0  0  0  0  0  0  0  0  0
   10.2397    9.3421    2.0145 C   0  0  0  0  0  0  0  0  0  0  0  0
   11.2125    7.1832    2.4814 C   0  0  0  0  0  0  0  0  0  0  0  0
   11.2234    8.5575    2.6120 C   0  0  0  0  0  0  0  0  0  0  0  0
   11.9990    6.6015    2.9367 H   0  0  0  0  0  0  0  0  0  0  0  0
   12.0268    9.0320    3.1612 H   0  0  0  0  0  0  0  0  0  0  0  0
    8.4879    9.2909    0.7714 H   0  0  0  0  0  0  0  0  0  0  0  0
    8.4824    6.8760    0.5209 H   0  0  0  0  0  0  0  0  0  0  0  0
   10.2552   10.8397    2.1867 C   0  0  0  0  0  0  0  0  0  0  0  0
    9.4857   11.3537    3.3189 N   0  0  0  0  0  0  0  0  0  0  0  0
    9.8619   11.3273    1.2940 H   0  0  0  0  0  0  0  0  0  0  0  0
   11.2841   11.1836    2.3315 H   0  0  0  0  0  0  0  0  0  0  0  0
    9.7552   10.7640    4.5783 C   0  0  0  0  0  0  0  0  0  0  0  0
    8.0368   11.2846    3.2215 C   0  0  0  0  0  0  0  0  0  0  0  0
    7.6284    9.9647    3.9020 C   0  0  0  0  0  0  0  0  0  0  0  0
    7.7022   11.3328    2.1889 H   0  0  0  0  0  0  0  0  0  0  0  0
    7.6185   12.1354    3.7646 H   0  0  0  0  0  0  0  0  0  0  0  0
    8.7994    9.5923    4.7450 N   0  0  0  0  0  0  0  0  0  0  0  0
    7.4306    9.1813    3.1750 H   0  0  0  0  0  0  0  0  0  0  0  0
    6.7386   10.0878    4.5168 H   0  0  0  0  0  0  0  0  0  0  0  0
    9.4966   11.4719    5.3735 H   0  0  0  0  0  0  0  0  0  0  0  0
   10.7918   10.4433    4.6830 H   0  0  0  0  0  0  0  0  0  0  0  0
    8.5159    9.3260    6.1754 C   0  0  0  0  0  0  0  0  0  0  0  0
    7.8680    7.9669    6.4175 C   0  0  0  0  0  0  0  0  0  0  0  0
    7.8472   10.1037    6.5472 H   0  0  0  0  0  0  0  0  0  0  0  0
    9.4631    9.3832    6.7190 H   0  0  0  0  0  0  0  0  0  0  0  0
    8.8684    6.8430    6.6885 C   0  0  0  0  0  0  0  0  0  0  0  0
    7.2398    7.7021    5.5673 H   0  0  0  0  0  0  0  0  0  0  0  0
    7.2138    8.0745    7.2829 H   0  0  0  0  0  0  0  0  0  0  0  0
    9.7620    6.5356    5.4905 C   0  0  0  0  0  0  0  0  0  0  0  0
    8.3003    5.9481    6.9424 H   0  0  0  0  0  0  0  0  0  0  0  0
    9.4808    7.1007    7.5558 H   0  0  0  0  0  0  0  0  0  0  0  0
    9.1532    6.4192    4.5961 H   0  0  0  0  0  0  0  0  0  0  0  0
   10.3053    5.6079    5.6558 H   0  0  0  0  0  0  0  0  0  0  0  0
   10.5020    7.3195    5.3320 H   0  0  0  0  0  0  0  0  0  0  0  0
    9.2043    8.7400    4.3416 H   0  0  0  0  0  0  0  0  0  0  0  0
   -2.2699    6.3208    6.6556 C   0  0  0  0  0  0  0  0  0  0  0  0
   -1.5811    5.9862    7.7401 C   0  0  0  0  0  0  0  0  0  0  0  0
   -3.3462    6.3141    6.6517 H   0  0  0  0  0  0  0  0  0  0  0  0
   -1.7935    6.6156    5.7371 H   0  0  0  0  0  0  0  0  0  0  0  0
   -0.1267    5.9570    7.8503 C   0  0  0  0  0  0  0  0  0  0  0  0
   -2.1104    5.6798    8.6333 H   0  0  0  0  0  0  0  0  0  0  0  0
    0.4677    5.2922    8.9244 C   0  0  0  0  0  0  0  0  0  0  0  0
    1.8433    5.2223    9.0503 C   0  0  0  0  0  0  0  0  0  0  0  0
    2.6723    5.8229    8.1100 C   0  0  0  0  0  0  0  0  0  0  0  0
    0.7090    6.5855    6.9253 C   0  0  0  0  0  0  0  0  0  0  0  0
    2.0846    6.5175    7.0511 C   0  0  0  0  0  0  0  0  0  0  0  0
    0.2992    7.1626    6.1132 H   0  0  0  0  0  0  0  0  0  0  0  0
    2.7034    7.0707    6.3585 H   0  0  0  0  0  0  0  0  0  0  0  0
    2.2742    4.7147    9.9019 H   0  0  0  0  0  0  0  0  0  0  0  0
   -0.1599    4.8249    9.6703 H   0  0  0  0  0  0  0  0  0  0  0  0
    4.1724    5.7083    8.1838 C   0  0  0  0  0  0  0  0  0  0  0  0
    4.7431    4.6786    7.3103 N   0  0  0  0  0  0  0  0  0  0  0  0
    4.4842    5.4617    9.2009 H   0  0  0  0  0  0  0  0  0  0  0  0
    4.6170    6.6642    7.9033 H   0  0  0  0  0  0  0  0  0  0  0  0
    4.6837    4.9257    5.9166 C   0  0  0  0  0  0  0  0  0  0  0  0
    4.1694    3.3579    7.4593 C   0  0  0  0  0  0  0  0  0  0  0  0
    3.0691    3.2507    6.3725 C   0  0  0  0  0  0  0  0  0  0  0  0
    3.7760    3.2127    8.4626 H   0  0  0  0  0  0  0  0  0  0  0  0
    4.9508    2.6149    7.2772 H   0  0  0  0  0  0  0  0  0  0  0  0
    3.3119    4.4072    5.4797 N   0  0  0  0  0  0  0  0  0  0  0  0
    2.0701    3.3072    6.8028 H   0  0  0  0  0  0  0  0  0  0  0  0
    3.1688    2.3255    5.8066 H   0  0  0  0  0  0  0  0  0  0  0  0
    5.4285    4.3194    5.3911 H   0  0  0  0  0  0  0  0  0  0  0  0
    4.8038    5.9760    5.6482 H   0  0  0  0  0  0  0  0  0  0  0  0
    3.1927    4.1371    4.0377 C   0  0  0  0  0  0  0  0  0  0  0  0
    1.8343    3.5652    3.6376 C   0  0  0  0  0  0  0  0  0  0  0  0
    3.9748    3.4233    3.7658 H   0  0  0  0  0  0  0  0  0  0  0  0
    3.3912    5.0802    3.5225 H   0  0  0  0  0  0  0  0  0  0  0  0
    0.6264    4.4405    3.9777 C   0  0  0  0  0  0  0  0  0  0  0  0
    1.6951    2.5798    4.0901 H   0  0  0  0  0  0  0  0  0  0  0  0
    1.8650    3.4240    2.5560 H   0  0  0  0  0  0  0  0  0  0  0  0
    0.6366    5.7774    3.2470 C   0  0  0  0  0  0  0  0  0  0  0  0
    0.5586    4.6060    5.0562 H   0  0  0  0  0  0  0  0  0  0  0  0
   -0.2680    3.8833    3.6865 H   0  0  0  0  0  0  0  0  0  0  0  0
   -0.3257    6.2691    3.3590 H   0  0  0  0  0  0  0  0  0  0  0  0
    0.8141    5.6266    2.1855 H   0  0  0  0  0  0  0  0  0  0  0  0
    1.3986    6.4492    3.6318 H   0  0  0  0  0  0  0  0  0  0  0  0
    2.6576    5.1741    5.7290 H   0  0  0  0  0  0  0  0  0  0  0  0
  1  3  1  0  0  0  0
  1  4  1  0  0  0  0
  1  5  1  0  0  0  0
  2  6  1  0  0  0  0
  2  7  1  0  0  0  0
  2  8  1  0  0  0  0
  1  9  1  0  0  0  0
  2 10  1  0  0  0  0
  9 11  1  0  0  0  0
 10 11  1  0  0  0  0
  9 12  2  0  0  0  0
  9 13  2  0  0  0  0
 10 14  2  0  0  0  0
 10 15  2  0  0  0  0
 16 18  1  0  0  0  0
 16 19  1  0  0  0  0
 16 20  1  0  0  0  0
 17 21  1  0  0  0  0
 17 22  1  0  0  0  0
 17 23  1  0  0  0  0
 16 24  1  0  0  0  0
 17 25  1  0  0  0  0
 24 26  1  0  0  0  0
 25 26  1  0  0  0  0
 24 27  2  0  0  0  0
 24 28  2  0  0  0  0
 25 29  2  0  0  0  0
 25 30  2  0  0  0  0
 31 32  2  0  0  0  0
 31 33  1  0  0  0  0
 31 34  1  0  0  0  0
 32 35  1  0  0  0  0
 32 36  1  0  0  0  0
 35 37  4  0  0  0  0
 37 38  4  0  0  0  0
 38 39  4  0  0  0  0
 35 40  4  0  0  0  0
 39 41  4  0  0  0  0
 40 41  4  0  0  0  0
 40 42  1  0  0  0  0
 41 43  1  0  0  0  0
 38 44  1  0  0  0  0
 37 45  1  0  0  0  0
 39 46  1  0  0  0  0
 46 47  1  0  0  0  0
 46 48  1  0  0  0  0
 46 49  1  0  0  0  0
 47 50  1  0  0  0  0
 47 51  1  0  0  0  0
 51 52  1  0  0  0  0
 51 53  1  0  0  0  0
 51 54  1  0  0  0  0
 50 55  1  0  0  0  0
 52 55  1  0  0  0  0
 52 56  1  0  0  0  0
 52 57  1  0  0  0  0
 50 58  1  0  0  0  0
 50 59  1  0  0  0  0
 55 60  1  0  0  0  0
 60 61  1  0  0  0  0
 60 62  1  0  0  0  0
 60 63  1  0  0  0  0
 61 64  1  0  0  0  0
 61 65  1  0  0  0  0
 61 66  1  0  0  0  0
 64 67  1  0  0  0  0
 64 68  1  0  0  0  0
 64 69  1  0  0  0  0
 67 70  1  0  0  0  0
 67 71  1  0  0  0  0
 67 72  1  0  0  0  0
 55 73  1  0  0  0  0
 74 75  2  0  0  0  0
 74 76  1  0  0  0  0
 74 77  1  0  0  0  0
 75 78  1  0  0  0  0
 75 79  1  0  0  0  0
 78 80  4  0  0  0  0
 80 81  4  0  0  0  0
 81 82  4  0  0  0  0
 78 83  4  0  0  0  0
 82 84  4  0  0  0  0
 83 84  4  0  0  0  0
 83 85  1  0  0  0  0
 84 86  1  0  0  0  0
 81 87  1  0  0  0  0
 80 88  1  0  0  0  0
 82 89  1  0  0  0  0
 89 90  1  0  0  0  0
 89 91  1  0  0  0  0
 89 92  1  0  0  0  0
 90 93  1  0  0  0  0
 90 94  1  0  0  0  0
 94 95  1  0  0  0  0
 94 96  1  0  0  0  0
 94 97  1  0  0  0  0
 93 98  1  0  0  0  0
 95 98  1  0  0  0  0
 95 99  1  0  0  0  0
 95100  1  0  0  0  0
 93101  1  0  0  0  0
 93102  1  0  0  0  0
 98103  1  0  0  0  0
103104  1  0  0  0  0
103105  1  0  0  0  0
103106  1  0  0  0  0
104107  1  0  0  0  0
104108  1  0  0  0  0
104109  1  0  0  0  0
107110  1  0  0  0  0
107111  1  0  0  0  0
107112  1  0  0  0  0
110113  1  0  0  0  0
110114  1  0  0  0  0
110115  1  0  0  0  0
 98116  1  0  0  0  0
M  END
