 xtb: 6.7.1 (edcfbbe)
          10212513433D

116116  0     0  0            999 V2000
    4.3022    4.4379    5.9211 C   0  0  0  0  0  0  0  0  0  0  0  0
    4.4814    0.7112    7.7656 C   0  0  0  0  0  0  0  0  0  0  0  0
    3.3489    3.8963    5.1641 F   0  0  0  0  0  0  0  0  0  0  0  0
    3.8022    4.5931    7.1463 F   0  0  0  0  0  0  0  0  0  0  0  0
    4.5617    5.6510    5.4331 F   0  0  0  0  0  0  0  0  0  0  0  0
    5.0134    0.2860    8.9243 F   0  0  0  0  0  0  0  0  0  0  0  0
    4.0306    1.9533    7.9927 F   0  0  0  0  0  0  0  0  0  0  0  0
    3.4295   -0.0551    7.5027 F   0  0  0  0  0  0  0  0  0  0  0  0
    5.8805    3.4064    5.9272 S   0  0  0  0  0  0  0  0  0  0  0  0
    5.7708    0.7362    6.3711 S   0  0  0  0  0  0  0  0  0  0  0  0
    5.3213    1.9899    5.5478 N   0  0  0  0  0  0  0  0  0  0  0  0
    6.6607    3.9932    4.8857 O   0  0  0  0  0  0  0  0  0  0  0  0
    6.3792    3.5151    7.2750 O   0  0  0  0  0  0  0  0  0  0  0  0
    5.5702   -0.4865    5.6745 O   0  0  0  0  0  0  0  0  0  0  0  0
    7.0083    0.8942    7.0843 O   0  0  0  0  0  0  0  0  0  0  0  0
    6.7047    8.2954    9.5976 C   0  0  0  0  0  0  0  0  0  0  0  0
    4.0517    8.5068    5.7870 C   0  0  0  0  0  0  0  0  0  0  0  0
    5.3813    8.1583    9.6588 F   0  0  0  0  0  0  0  0  0  0  0  0
    7.2066    7.6515   10.6696 F   0  0  0  0  0  0  0  0  0  0  0  0
    7.0130    9.5764    9.7603 F   0  0  0  0  0  0  0  0  0  0  0  0
    3.5000    9.7283    5.7659 F   0  0  0  0  0  0  0  0  0  0  0  0
    3.9905    8.0435    4.5460 F   0  0  0  0  0  0  0  0  0  0  0  0
    3.3112    7.7465    6.5796 F   0  0  0  0  0  0  0  0  0  0  0  0
    7.4458    7.5330    8.0106 S   0  0  0  0  0  0  0  0  0  0  0  0
    5.8083    8.7105    6.4267 S   0  0  0  0  0  0  0  0  0  0  0  0
    6.2001    7.3282    7.0685 N   0  0  0  0  0  0  0  0  0  0  0  0
    8.3370    8.5646    7.5502 O   0  0  0  0  0  0  0  0  0  0  0  0
    8.0109    6.3136    8.4939 O   0  0  0  0  0  0  0  0  0  0  0  0
    5.6953    9.7578    7.3952 O   0  0  0  0  0  0  0  0  0  0  0  0
    6.5556    9.0870    5.2408 O   0  0  0  0  0  0  0  0  0  0  0  0
    4.6447    5.3317    2.4616 C   0  0  0  0  0  0  0  0  0  0  0  0
    4.8715    6.5669    2.0305 C   0  0  0  0  0  0  0  0  0  0  0  0
    3.6624    4.8950    2.3994 H   0  0  0  0  0  0  0  0  0  0  0  0
    5.4048    4.7167    2.9116 H   0  0  0  0  0  0  0  0  0  0  0  0
    6.1476    7.2682    2.0623 C   0  0  0  0  0  0  0  0  0  0  0  0
    4.0540    7.1391    1.6095 H   0  0  0  0  0  0  0  0  0  0  0  0
    6.2141    8.5870    1.6095 C   0  0  0  0  0  0  0  0  0  0  0  0
    7.4058    9.2830    1.6034 C   0  0  0  0  0  0  0  0  0  0  0  0
    8.5760    8.6872    2.0616 C   0  0  0  0  0  0  0  0  0  0  0  0
    7.3277    6.6665    2.4964 C   0  0  0  0  0  0  0  0  0  0  0  0
    8.5174    7.3665    2.4892 C   0  0  0  0  0  0  0  0  0  0  0  0
    7.3166    5.6480    2.8494 H   0  0  0  0  0  0  0  0  0  0  0  0
    9.4226    6.8714    2.8126 H   0  0  0  0  0  0  0  0  0  0  0  0
    7.4308   10.2903    1.2092 H   0  0  0  0  0  0  0  0  0  0  0  0
    5.3164    9.0683    1.2484 H   0  0  0  0  0  0  0  0  0  0  0  0
    9.8925    9.4234    2.0707 C   0  0  0  0  0  0  0  0  0  0  0  0
   10.1063   10.4193    3.1216 N   0  0  0  0  0  0  0  0  0  0  0  0
   10.0387    9.9494    1.1246 H   0  0  0  0  0  0  0  0  0  0  0  0
   10.7042    8.6980    2.1739 H   0  0  0  0  0  0  0  0  0  0  0  0
    9.8945   10.0231    4.4779 C   0  0  0  0  0  0  0  0  0  0  0  0
    9.4521   11.6997    2.9902 C   0  0  0  0  0  0  0  0  0  0  0  0
    8.2077   11.6024    3.8837 C   0  0  0  0  0  0  0  0  0  0  0  0
    9.2133   11.9216    1.9529 H   0  0  0  0  0  0  0  0  0  0  0  0
   10.1278   12.4771    3.3665 H   0  0  0  0  0  0  0  0  0  0  0  0
    8.6445   10.7227    4.9912 N   0  0  0  0  0  0  0  0  0  0  0  0
    7.3839   11.1174    3.3606 H   0  0  0  0  0  0  0  0  0  0  0  0
    7.8841   12.5695    4.2564 H   0  0  0  0  0  0  0  0  0  0  0  0
   10.7263   10.3757    5.0997 H   0  0  0  0  0  0  0  0  0  0  0  0
    9.7990    8.9435    4.5816 H   0  0  0  0  0  0  0  0  0  0  0  0
    8.8912   11.4148    6.2766 C   0  0  0  0  0  0  0  0  0  0  0  0
    7.6610   12.1323    6.8202 C   0  0  0  0  0  0  0  0  0  0  0  0
    9.7193   12.1180    6.1377 H   0  0  0  0  0  0  0  0  0  0  0  0
    9.1731   10.6409    6.9947 H   0  0  0  0  0  0  0  0  0  0  0  0
    7.8917   12.6034    8.2564 C   0  0  0  0  0  0  0  0  0  0  0  0
    6.8209   11.4401    6.8282 H   0  0  0  0  0  0  0  0  0  0  0  0
    7.3988   12.9991    6.2104 H   0  0  0  0  0  0  0  0  0  0  0  0
    6.6196   13.2184    8.8240 C   0  0  0  0  0  0  0  0  0  0  0  0
    8.7067   13.3313    8.2864 H   0  0  0  0  0  0  0  0  0  0  0  0
    8.1709   11.7447    8.8658 H   0  0  0  0  0  0  0  0  0  0  0  0
    6.7749   13.5385    9.8503 H   0  0  0  0  0  0  0  0  0  0  0  0
    5.8243   12.4787    8.8055 H   0  0  0  0  0  0  0  0  0  0  0  0
    6.3089   14.0805    8.2372 H   0  0  0  0  0  0  0  0  0  0  0  0
    7.8844   10.0213    5.1761 H   0  0  0  0  0  0  0  0  0  0  0  0
    8.6310    6.5733    5.4477 C   0  0  0  0  0  0  0  0  0  0  0  0
    9.8207    6.3400    5.9891 C   0  0  0  0  0  0  0  0  0  0  0  0
    8.3451    7.5267    5.0440 H   0  0  0  0  0  0  0  0  0  0  0  0
    7.8685    5.8170    5.4076 H   0  0  0  0  0  0  0  0  0  0  0  0
   10.1385    5.0804    6.6469 C   0  0  0  0  0  0  0  0  0  0  0  0
   10.5679    7.1218    6.0657 H   0  0  0  0  0  0  0  0  0  0  0  0
   11.0679    5.0458    7.6847 C   0  0  0  0  0  0  0  0  0  0  0  0
   11.2130    3.9094    8.4576 C   0  0  0  0  0  0  0  0  0  0  0  0
   10.4314    2.7845    8.2135 C   0  0  0  0  0  0  0  0  0  0  0  0
    9.4594    3.9063    6.3227 C   0  0  0  0  0  0  0  0  0  0  0  0
    9.5928    2.7785    7.1041 C   0  0  0  0  0  0  0  0  0  0  0  0
    8.7972    3.8842    5.4752 H   0  0  0  0  0  0  0  0  0  0  0  0
    9.0135    1.8992    6.8675 H   0  0  0  0  0  0  0  0  0  0  0  0
   11.9242    3.9056    9.2728 H   0  0  0  0  0  0  0  0  0  0  0  0
   11.6441    5.9304    7.9154 H   0  0  0  0  0  0  0  0  0  0  0  0
   10.3941    1.6340    9.1804 C   0  0  0  0  0  0  0  0  0  0  0  0
    9.3789    1.7783   10.2267 N   0  0  0  0  0  0  0  0  0  0  0  0
   11.3512    1.5235    9.6970 H   0  0  0  0  0  0  0  0  0  0  0  0
   10.1727    0.7027    8.6574 H   0  0  0  0  0  0  0  0  0  0  0  0
    8.0092    1.7266    9.8369 C   0  0  0  0  0  0  0  0  0  0  0  0
    9.4733    2.9668   11.0458 C   0  0  0  0  0  0  0  0  0  0  0  0
    8.5305    3.9939   10.3920 C   0  0  0  0  0  0  0  0  0  0  0  0
   10.4973    3.3242   11.1118 H   0  0  0  0  0  0  0  0  0  0  0  0
    9.1227    2.7177   12.0535 H   0  0  0  0  0  0  0  0  0  0  0  0
    7.4800    3.1582    9.7634 N   0  0  0  0  0  0  0  0  0  0  0  0
    9.0264    4.5932    9.6310 H   0  0  0  0  0  0  0  0  0  0  0  0
    8.0952    4.6688   11.1250 H   0  0  0  0  0  0  0  0  0  0  0  0
    7.4350    1.2271   10.6260 H   0  0  0  0  0  0  0  0  0  0  0  0
    7.8458    1.2172    8.8865 H   0  0  0  0  0  0  0  0  0  0  0  0
    6.1636    3.2931   10.4194 C   0  0  0  0  0  0  0  0  0  0  0  0
    5.5308    4.6530   10.1445 C   0  0  0  0  0  0  0  0  0  0  0  0
    6.3029    3.1406   11.4952 H   0  0  0  0  0  0  0  0  0  0  0  0
    5.5154    2.5095   10.0309 H   0  0  0  0  0  0  0  0  0  0  0  0
    4.2660    4.8848   10.9728 C   0  0  0  0  0  0  0  0  0  0  0  0
    5.2969    4.7211    9.0840 H   0  0  0  0  0  0  0  0  0  0  0  0
    6.2479    5.4412   10.3687 H   0  0  0  0  0  0  0  0  0  0  0  0
    3.1449    3.9073   10.6420 C   0  0  0  0  0  0  0  0  0  0  0  0
    3.9206    5.8991   10.7713 H   0  0  0  0  0  0  0  0  0  0  0  0
    4.5083    4.8212   12.0373 H   0  0  0  0  0  0  0  0  0  0  0  0
    3.3908    2.8981   10.9620 H   0  0  0  0  0  0  0  0  0  0  0  0
    2.9643    3.8985    9.5716 H   0  0  0  0  0  0  0  0  0  0  0  0
    2.2293    4.2053   11.1464 H   0  0  0  0  0  0  0  0  0  0  0  0
    7.3300    3.4219    8.7700 H   0  0  0  0  0  0  0  0  0  0  0  0
  1  3  1  0  0  0  0
  1  4  1  0  0  0  0
  1  5  1  0  0  0  0
  2  6  1  0  0  0  0
  2  7  1  0  0  0  0
  2  8  1  0  0  0  0
  1  9  1  0  0  0  0
  2 10  1  0  0  0  0
  9 11  1  0  0  0  0
 10 11  1  0  0  0  0
  9 12  2  0  0  0  0
  9 13  2  0  0  0  0
 10 14  2  0  0  0  0
 10 15  2  0  0  0  0
 16 18  1  0  0  0  0
 16 19  1  0  0  0  0
 16 20  1  0  0  0  0
 17 21  1  0  0  0  0
 17 22  1  0  0  0  0
 17 23  1  0  0  0  0
 16 24  1  0  0  0  0
 17 25  1  0  0  0  0
 24 26  1  0  0  0  0
 25 26  1  0  0  0  0
 24 27  2  0  0  0  0
 24 28  2  0  0  0  0
 25 29  2  0  0  0  0
 25 30  2  0  0  0  0
 31 32  2  0  0  0  0
 31 33  1  0  0  0  0
 31 34  1  0  0  0  0
 32 35  1  0  0  0  0
 32 36  1  0  0  0  0
 35 37  4  0  0  0  0
 37 38  4  0  0  0  0
 38 39  4  0  0  0  0
 35 40  4  0  0  0  0
 39 41  4  0  0  0  0
 40 41  4  0  0  0  0
 40 42  1  0  0  0  0
 41 43  1  0  0  0  0
 38 44  1  0  0  0  0
 37 45  1  0  0  0  0
 39 46  1  0  0  0  0
 46 47  1  0  0  0  0
 46 48  1  0  0  0  0
 46 49  1  0  0  0  0
 47 50  1  0  0  0  0
 47 51  1  0  0  0  0
 51 52  1  0  0  0  0
 51 53  1  0  0  0  0
 51 54  1  0  0  0  0
 50 55  1  0  0  0  0
 52 55  1  0  0  0  0
 52 56  1  0  0  0  0
 52 57  1  0  0  0  0
 50 58  1  0  0  0  0
 50 59  1  0  0  0  0
 55 60  1  0  0  0  0
 60 61  1  0  0  0  0
 60 62  1  0  0  0  0
 60 63  1  0  0  0  0
 61 64  1  0  0  0  0
 61 65  1  0  0  0  0
 61 66  1  0  0  0  0
 64 67  1  0  0  0  0
 64 68  1  0  0  0  0
 64 69  1  0  0  0  0
 67 70  1  0  0  0  0
 67 71  1  0  0  0  0
 67 72  1  0  0  0  0
 55 73  1  0  0  0  0
 74 75  2  0  0  0  0
 74 76  1  0  0  0  0
 74 77  1  0  0  0  0
 75 78  1  0  0  0  0
 75 79  1  0  0  0  0
 78 80  4  0  0  0  0
 80 81  4  0  0  0  0
 81 82  4  0  0  0  0
 78 83  4  0  0  0  0
 82 84  4  0  0  0  0
 83 84  4  0  0  0  0
 83 85  1  0  0  0  0
 84 86  1  0  0  0  0
 81 87  1  0  0  0  0
 80 88  1  0  0  0  0
 82 89  1  0  0  0  0
 89 90  1  0  0  0  0
 89 91  1  0  0  0  0
 89 92  1  0  0  0  0
 90 93  1  0  0  0  0
 90 94  1  0  0  0  0
 94 95  1  0  0  0  0
 94 96  1  0  0  0  0
 94 97  1  0  0  0  0
 93 98  1  0  0  0  0
 95 98  1  0  0  0  0
 95 99  1  0  0  0  0
 95100  1  0  0  0  0
 93101  1  0  0  0  0
 93102  1  0  0  0  0
 98103  1  0  0  0  0
103104  1  0  0  0  0
103105  1  0  0  0  0
103106  1  0  0  0  0
104107  1  0  0  0  0
104108  1  0  0  0  0
104109  1  0  0  0  0
107110  1  0  0  0  0
107111  1  0  0  0  0
107112  1  0  0  0  0
110113  1  0  0  0  0
110114  1  0  0  0  0
110115  1  0  0  0  0
 98116  1  0  0  0  0
M  END
