 xtb: 6.7.1 (edcfbbe)
          10212513343D

116116  0     0  0            999 V2000
    3.6099    6.4321    1.3238 C   0  0  0  0  0  0  0  0  0  0  0  0
    4.5584   10.1576    3.6179 C   0  0  0  0  0  0  0  0  0  0  0  0
    3.9639    6.1521    0.0724 F   0  0  0  0  0  0  0  0  0  0  0  0
    3.1726    5.3041    1.8845 F   0  0  0  0  0  0  0  0  0  0  0  0
    2.6001    7.2940    1.2948 F   0  0  0  0  0  0  0  0  0  0  0  0
    3.5721    9.9781    2.7444 F   0  0  0  0  0  0  0  0  0  0  0  0
    4.1020   11.0149    4.5504 F   0  0  0  0  0  0  0  0  0  0  0  0
    5.5839   10.7388    3.0256 F   0  0  0  0  0  0  0  0  0  0  0  0
    5.0456    7.1065    2.3236 S   0  0  0  0  0  0  0  0  0  0  0  0
    4.9937    8.5428    4.4943 S   0  0  0  0  0  0  0  0  0  0  0  0
    4.2987    7.3828    3.6947 N   0  0  0  0  0  0  0  0  0  0  0  0
    5.9603    5.9936    2.3933 O   0  0  0  0  0  0  0  0  0  0  0  0
    5.5032    8.3019    1.7050 O   0  0  0  0  0  0  0  0  0  0  0  0
    4.3434    8.6890    5.7736 O   0  0  0  0  0  0  0  0  0  0  0  0
    6.4197    8.4440    4.5196 O   0  0  0  0  0  0  0  0  0  0  0  0
    6.0597    1.8311    9.8816 C   0  0  0  0  0  0  0  0  0  0  0  0
   10.0013    4.5530   10.0661 C   0  0  0  0  0  0  0  0  0  0  0  0
    4.8275    2.3543    9.9342 F   0  0  0  0  0  0  0  0  0  0  0  0
    6.3594    1.6667    8.5914 F   0  0  0  0  0  0  0  0  0  0  0  0
    5.9960    0.6221   10.4407 F   0  0  0  0  0  0  0  0  0  0  0  0
    9.5944    4.7527   11.3191 F   0  0  0  0  0  0  0  0  0  0  0  0
   10.8427    3.5332   10.0317 F   0  0  0  0  0  0  0  0  0  0  0  0
   10.7041    5.6429    9.7161 F   0  0  0  0  0  0  0  0  0  0  0  0
    7.2775    2.9931   10.7379 S   0  0  0  0  0  0  0  0  0  0  0  0
    8.5433    4.3946    8.8734 S   0  0  0  0  0  0  0  0  0  0  0  0
    7.2585    4.2228    9.7514 N   0  0  0  0  0  0  0  0  0  0  0  0
    6.6298    3.2882   11.9752 O   0  0  0  0  0  0  0  0  0  0  0  0
    8.5355    2.3200   10.7544 O   0  0  0  0  0  0  0  0  0  0  0  0
    8.8440    3.3138    7.9814 O   0  0  0  0  0  0  0  0  0  0  0  0
    8.5014    5.6829    8.2288 O   0  0  0  0  0  0  0  0  0  0  0  0
   -0.6795    0.8276    6.7223 C   0  0  0  0  0  0  0  0  0  0  0  0
    0.4849    1.1661    7.2631 C   0  0  0  0  0  0  0  0  0  0  0  0
   -1.3965    0.2325    7.2615 H   0  0  0  0  0  0  0  0  0  0  0  0
   -0.9689    1.1235    5.7286 H   0  0  0  0  0  0  0  0  0  0  0  0
    1.5355    1.9646    6.6435 C   0  0  0  0  0  0  0  0  0  0  0  0
    0.7097    0.8383    8.2709 H   0  0  0  0  0  0  0  0  0  0  0  0
    1.4865    2.3890    5.3140 C   0  0  0  0  0  0  0  0  0  0  0  0
    2.5065    3.1459    4.7754 C   0  0  0  0  0  0  0  0  0  0  0  0
    3.6066    3.5080    5.5462 C   0  0  0  0  0  0  0  0  0  0  0  0
    2.6478    2.3279    7.4047 C   0  0  0  0  0  0  0  0  0  0  0  0
    3.6670    3.0909    6.8688 C   0  0  0  0  0  0  0  0  0  0  0  0
    2.7147    2.0111    8.4350 H   0  0  0  0  0  0  0  0  0  0  0  0
    4.5148    3.3724    7.4724 H   0  0  0  0  0  0  0  0  0  0  0  0
    2.4549    3.4675    3.7449 H   0  0  0  0  0  0  0  0  0  0  0  0
    0.6485    2.1171    4.6918 H   0  0  0  0  0  0  0  0  0  0  0  0
    4.6882    4.3686    4.9442 C   0  0  0  0  0  0  0  0  0  0  0  0
    5.8821    4.3681    5.7752 N   0  0  0  0  0  0  0  0  0  0  0  0
    4.3156    5.3960    4.8649 H   0  0  0  0  0  0  0  0  0  0  0  0
    4.8868    4.0317    3.9151 H   0  0  0  0  0  0  0  0  0  0  0  0
    6.7277    5.4968    5.6648 C   0  0  0  0  0  0  0  0  0  0  0  0
    6.7776    3.2500    5.5376 C   0  0  0  0  0  0  0  0  0  0  0  0
    7.8104    3.7576    4.4924 C   0  0  0  0  0  0  0  0  0  0  0  0
    6.2211    2.3785    5.1992 H   0  0  0  0  0  0  0  0  0  0  0  0
    7.2923    3.0036    6.4689 H   0  0  0  0  0  0  0  0  0  0  0  0
    7.5827    5.2193    4.4364 N   0  0  0  0  0  0  0  0  0  0  0  0
    7.6586    3.3204    3.5059 H   0  0  0  0  0  0  0  0  0  0  0  0
    8.8204    3.5505    4.8389 H   0  0  0  0  0  0  0  0  0  0  0  0
    7.3858    5.5590    6.5375 H   0  0  0  0  0  0  0  0  0  0  0  0
    6.1928    6.4345    5.5248 H   0  0  0  0  0  0  0  0  0  0  0  0
    8.7581    6.1018    4.2772 C   0  0  0  0  0  0  0  0  0  0  0  0
    9.8871    5.8511    5.2759 C   0  0  0  0  0  0  0  0  0  0  0  0
    8.3761    7.1194    4.3825 H   0  0  0  0  0  0  0  0  0  0  0  0
    9.1227    5.9847    3.2534 H   0  0  0  0  0  0  0  0  0  0  0  0
   10.6550    7.1421    5.5778 C   0  0  0  0  0  0  0  0  0  0  0  0
   10.5817    5.1092    4.8765 H   0  0  0  0  0  0  0  0  0  0  0  0
    9.4933    5.4750    6.2196 H   0  0  0  0  0  0  0  0  0  0  0  0
    9.8374    8.1066    6.4298 C   0  0  0  0  0  0  0  0  0  0  0  0
   10.9555    7.6226    4.6436 H   0  0  0  0  0  0  0  0  0  0  0  0
   11.5606    6.8751    6.1242 H   0  0  0  0  0  0  0  0  0  0  0  0
    9.4805    7.5895    7.3158 H   0  0  0  0  0  0  0  0  0  0  0  0
    8.9799    8.4972    5.8853 H   0  0  0  0  0  0  0  0  0  0  0  0
   10.4567    8.9463    6.7350 H   0  0  0  0  0  0  0  0  0  0  0  0
    6.9654    5.4346    3.6282 H   0  0  0  0  0  0  0  0  0  0  0  0
    7.9904    7.5023   10.9124 C   0  0  0  0  0  0  0  0  0  0  0  0
    6.9964    6.6643   11.1810 C   0  0  0  0  0  0  0  0  0  0  0  0
    8.8167    7.6196   11.5915 H   0  0  0  0  0  0  0  0  0  0  0  0
    8.0364    8.0840   10.0078 H   0  0  0  0  0  0  0  0  0  0  0  0
    5.8400    6.4122   10.3321 C   0  0  0  0  0  0  0  0  0  0  0  0
    7.0086    6.0926   12.0987 H   0  0  0  0  0  0  0  0  0  0  0  0
    4.7644    5.6841   10.8442 C   0  0  0  0  0  0  0  0  0  0  0  0
    3.6312    5.4561   10.0862 C   0  0  0  0  0  0  0  0  0  0  0  0
    3.5343    5.9446    8.7884 C   0  0  0  0  0  0  0  0  0  0  0  0
    5.7662    6.8498    9.0084 C   0  0  0  0  0  0  0  0  0  0  0  0
    4.6322    6.6189    8.2494 C   0  0  0  0  0  0  0  0  0  0  0  0
    6.6144    7.3310    8.5527 H   0  0  0  0  0  0  0  0  0  0  0  0
    4.6166    6.9224    7.2114 H   0  0  0  0  0  0  0  0  0  0  0  0
    2.8211    4.8738   10.5013 H   0  0  0  0  0  0  0  0  0  0  0  0
    4.8367    5.2722   11.8385 H   0  0  0  0  0  0  0  0  0  0  0  0
    2.2527    5.8354    8.0027 C   0  0  0  0  0  0  0  0  0  0  0  0
    1.4068    7.0337    8.0857 N   0  0  0  0  0  0  0  0  0  0  0  0
    1.6504    5.0016    8.3688 H   0  0  0  0  0  0  0  0  0  0  0  0
    2.4586    5.6637    6.9461 H   0  0  0  0  0  0  0  0  0  0  0  0
    1.8894    8.1910    7.4298 C   0  0  0  0  0  0  0  0  0  0  0  0
    1.1144    7.4940    9.4282 C   0  0  0  0  0  0  0  0  0  0  0  0
    2.1708    8.5868    9.7433 C   0  0  0  0  0  0  0  0  0  0  0  0
    1.1485    6.6708   10.1368 H   0  0  0  0  0  0  0  0  0  0  0  0
    0.1098    7.9254    9.4376 H   0  0  0  0  0  0  0  0  0  0  0  0
    2.8075    8.8760    8.4382 N   0  0  0  0  0  0  0  0  0  0  0  0
    2.9135    8.2329   10.4563 H   0  0  0  0  0  0  0  0  0  0  0  0
    1.6963    9.4893   10.1268 H   0  0  0  0  0  0  0  0  0  0  0  0
    1.0634    8.8848    7.2368 H   0  0  0  0  0  0  0  0  0  0  0  0
    2.4384    7.9902    6.5110 H   0  0  0  0  0  0  0  0  0  0  0  0
    3.0770   10.2925    8.1416 C   0  0  0  0  0  0  0  0  0  0  0  0
    3.9919   10.9588    9.1672 C   0  0  0  0  0  0  0  0  0  0  0  0
    2.1200   10.8206    8.1078 H   0  0  0  0  0  0  0  0  0  0  0  0
    3.5341   10.3241    7.1514 H   0  0  0  0  0  0  0  0  0  0  0  0
    5.3822   10.3316    9.2951 C   0  0  0  0  0  0  0  0  0  0  0  0
    3.5128   10.9635   10.1486 H   0  0  0  0  0  0  0  0  0  0  0  0
    4.1057   11.9990    8.8569 H   0  0  0  0  0  0  0  0  0  0  0  0
    6.1856   10.3857    8.0001 C   0  0  0  0  0  0  0  0  0  0  0  0
    5.3088    9.2975    9.6393 H   0  0  0  0  0  0  0  0  0  0  0  0
    5.9190   10.8852   10.0677 H   0  0  0  0  0  0  0  0  0  0  0  0
    7.1987   10.0364    8.1780 H   0  0  0  0  0  0  0  0  0  0  0  0
    6.2404   11.4067    7.6295 H   0  0  0  0  0  0  0  0  0  0  0  0
    5.7493    9.7607    7.2261 H   0  0  0  0  0  0  0  0  0  0  0  0
    3.7014    8.3441    8.3727 H   0  0  0  0  0  0  0  0  0  0  0  0
  1  3  1  0  0  0  0
  1  4  1  0  0  0  0
  1  5  1  0  0  0  0
  2  6  1  0  0  0  0
  2  7  1  0  0  0  0
  2  8  1  0  0  0  0
  1  9  1  0  0  0  0
  2 10  1  0  0  0  0
  9 11  1  0  0  0  0
 10 11  1  0  0  0  0
  9 12  2  0  0  0  0
  9 13  2  0  0  0  0
 10 14  2  0  0  0  0
 10 15  2  0  0  0  0
 16 18  1  0  0  0  0
 16 19  1  0  0  0  0
 16 20  1  0  0  0  0
 17 21  1  0  0  0  0
 17 22  1  0  0  0  0
 17 23  1  0  0  0  0
 16 24  1  0  0  0  0
 17 25  1  0  0  0  0
 24 26  1  0  0  0  0
 25 26  1  0  0  0  0
 24 27  2  0  0  0  0
 24 28  2  0  0  0  0
 25 29  2  0  0  0  0
 25 30  2  0  0  0  0
 31 32  2  0  0  0  0
 31 33  1  0  0  0  0
 31 34  1  0  0  0  0
 32 35  1  0  0  0  0
 32 36  1  0  0  0  0
 35 37  4  0  0  0  0
 37 38  4  0  0  0  0
 38 39  4  0  0  0  0
 35 40  4  0  0  0  0
 39 41  4  0  0  0  0
 40 41  4  0  0  0  0
 40 42  1  0  0  0  0
 41 43  1  0  0  0  0
 38 44  1  0  0  0  0
 37 45  1  0  0  0  0
 39 46  1  0  0  0  0
 46 47  1  0  0  0  0
 46 48  1  0  0  0  0
 46 49  1  0  0  0  0
 47 50  1  0  0  0  0
 47 51  1  0  0  0  0
 51 52  1  0  0  0  0
 51 53  1  0  0  0  0
 51 54  1  0  0  0  0
 50 55  1  0  0  0  0
 52 55  1  0  0  0  0
 52 56  1  0  0  0  0
 52 57  1  0  0  0  0
 50 58  1  0  0  0  0
 50 59  1  0  0  0  0
 55 60  1  0  0  0  0
 60 61  1  0  0  0  0
 60 62  1  0  0  0  0
 60 63  1  0  0  0  0
 61 64  1  0  0  0  0
 61 65  1  0  0  0  0
 61 66  1  0  0  0  0
 64 67  1  0  0  0  0
 64 68  1  0  0  0  0
 64 69  1  0  0  0  0
 67 70  1  0  0  0  0
 67 71  1  0  0  0  0
 67 72  1  0  0  0  0
 55 73  1  0  0  0  0
 74 75  2  0  0  0  0
 74 76  1  0  0  0  0
 74 77  1  0  0  0  0
 75 78  1  0  0  0  0
 75 79  1  0  0  0  0
 78 80  4  0  0  0  0
 80 81  4  0  0  0  0
 81 82  4  0  0  0  0
 78 83  4  0  0  0  0
 82 84  4  0  0  0  0
 83 84  4  0  0  0  0
 83 85  1  0  0  0  0
 84 86  1  0  0  0  0
 81 87  1  0  0  0  0
 80 88  1  0  0  0  0
 82 89  1  0  0  0  0
 89 90  1  0  0  0  0
 89 91  1  0  0  0  0
 89 92  1  0  0  0  0
 90 93  1  0  0  0  0
 90 94  1  0  0  0  0
 94 95  1  0  0  0  0
 94 96  1  0  0  0  0
 94 97  1  0  0  0  0
 93 98  1  0  0  0  0
 95 98  1  0  0  0  0
 95 99  1  0  0  0  0
 95100  1  0  0  0  0
 93101  1  0  0  0  0
 93102  1  0  0  0  0
 98103  1  0  0  0  0
103104  1  0  0  0  0
103105  1  0  0  0  0
103106  1  0  0  0  0
104107  1  0  0  0  0
104108  1  0  0  0  0
104109  1  0  0  0  0
107110  1  0  0  0  0
107111  1  0  0  0  0
107112  1  0  0  0  0
110113  1  0  0  0  0
110114  1  0  0  0  0
110115  1  0  0  0  0
 98116  1  0  0  0  0
M  END
