 xtb: 6.7.1 (edcfbbe)
          10212513423D

116116  0     0  0            999 V2000
    8.6075    7.3976    6.3975 C   0  0  0  0  0  0  0  0  0  0  0  0
    7.6544    7.7724   11.2089 C   0  0  0  0  0  0  0  0  0  0  0  0
    9.2094    7.8907    5.3098 F   0  0  0  0  0  0  0  0  0  0  0  0
    9.4641    6.5563    6.9773 F   0  0  0  0  0  0  0  0  0  0  0  0
    7.5662    6.6828    5.9616 F   0  0  0  0  0  0  0  0  0  0  0  0
    6.7857    6.9143   11.7644 F   0  0  0  0  0  0  0  0  0  0  0  0
    8.5775    8.0581   12.1219 F   0  0  0  0  0  0  0  0  0  0  0  0
    6.9681    8.9019   10.9735 F   0  0  0  0  0  0  0  0  0  0  0  0
    8.1168    8.7934    7.5935 S   0  0  0  0  0  0  0  0  0  0  0  0
    8.3826    7.0781    9.6002 S   0  0  0  0  0  0  0  0  0  0  0  0
    8.8828    8.3967    8.9056 N   0  0  0  0  0  0  0  0  0  0  0  0
    8.6469    9.9802    7.0067 O   0  0  0  0  0  0  0  0  0  0  0  0
    6.6825    8.7265    7.6784 O   0  0  0  0  0  0  0  0  0  0  0  0
    7.2562    6.4665    8.9535 O   0  0  0  0  0  0  0  0  0  0  0  0
    9.4311    6.2235   10.0514 O   0  0  0  0  0  0  0  0  0  0  0  0
    4.0597    3.2377    9.3718 C   0  0  0  0  0  0  0  0  0  0  0  0
    0.1393    4.7044    7.3298 C   0  0  0  0  0  0  0  0  0  0  0  0
    4.2087    2.2916    8.4357 F   0  0  0  0  0  0  0  0  0  0  0  0
    4.6793    4.3342    8.9477 F   0  0  0  0  0  0  0  0  0  0  0  0
    4.6492    2.8107   10.4761 F   0  0  0  0  0  0  0  0  0  0  0  0
   -0.4680    4.7846    8.5056 F   0  0  0  0  0  0  0  0  0  0  0  0
    0.7397    5.8667    7.0748 F   0  0  0  0  0  0  0  0  0  0  0  0
   -0.8040    4.5533    6.3974 F   0  0  0  0  0  0  0  0  0  0  0  0
    2.2307    3.6583    9.6402 S   0  0  0  0  0  0  0  0  0  0  0  0
    1.3178    3.2229    7.2407 S   0  0  0  0  0  0  0  0  0  0  0  0
    1.4619    2.6570    8.6890 N   0  0  0  0  0  0  0  0  0  0  0  0
    1.9738    3.4676   11.0181 O   0  0  0  0  0  0  0  0  0  0  0  0
    2.1265    5.0015    9.1120 O   0  0  0  0  0  0  0  0  0  0  0  0
    2.5491    3.7438    6.6758 O   0  0  0  0  0  0  0  0  0  0  0  0
    0.6620    2.2956    6.3691 O   0  0  0  0  0  0  0  0  0  0  0  0
   11.3493    3.3846    9.0680 C   0  0  0  0  0  0  0  0  0  0  0  0
   10.8393    2.5811    8.1415 C   0  0  0  0  0  0  0  0  0  0  0  0
   12.3107    3.1801    9.5088 H   0  0  0  0  0  0  0  0  0  0  0  0
   10.8461    4.2722    9.4137 H   0  0  0  0  0  0  0  0  0  0  0  0
    9.5552    2.7646    7.4761 C   0  0  0  0  0  0  0  0  0  0  0  0
   11.4035    1.7150    7.8120 H   0  0  0  0  0  0  0  0  0  0  0  0
    9.2423    2.0072    6.3463 C   0  0  0  0  0  0  0  0  0  0  0  0
    8.0424    2.1747    5.6804 C   0  0  0  0  0  0  0  0  0  0  0  0
    7.1085    3.0942    6.1392 C   0  0  0  0  0  0  0  0  0  0  0  0
    8.6108    3.6875    7.9264 C   0  0  0  0  0  0  0  0  0  0  0  0
    7.4101    3.8471    7.2678 C   0  0  0  0  0  0  0  0  0  0  0  0
    8.8100    4.2992    8.7899 H   0  0  0  0  0  0  0  0  0  0  0  0
    6.7178    4.5904    7.6283 H   0  0  0  0  0  0  0  0  0  0  0  0
    7.8311    1.5948    4.7939 H   0  0  0  0  0  0  0  0  0  0  0  0
    9.9588    1.2874    5.9742 H   0  0  0  0  0  0  0  0  0  0  0  0
    5.8030    3.3402    5.4259 C   0  0  0  0  0  0  0  0  0  0  0  0
    5.4104    2.2056    4.5945 N   0  0  0  0  0  0  0  0  0  0  0  0
    5.9398    4.1970    4.7596 H   0  0  0  0  0  0  0  0  0  0  0  0
    5.0280    3.6034    6.1579 H   0  0  0  0  0  0  0  0  0  0  0  0
    4.3181    2.4314    3.7290 C   0  0  0  0  0  0  0  0  0  0  0  0
    5.0618    1.0020    5.3248 C   0  0  0  0  0  0  0  0  0  0  0  0
    3.5158    0.9917    5.4298 C   0  0  0  0  0  0  0  0  0  0  0  0
    5.5429    1.0021    6.3001 H   0  0  0  0  0  0  0  0  0  0  0  0
    5.4086    0.1316    4.7605 H   0  0  0  0  0  0  0  0  0  0  0  0
    3.0642    2.0733    4.5169 N   0  0  0  0  0  0  0  0  0  0  0  0
    3.1682    1.2006    6.4396 H   0  0  0  0  0  0  0  0  0  0  0  0
    3.1005    0.0394    5.1028 H   0  0  0  0  0  0  0  0  0  0  0  0
    4.3545    1.7319    2.8841 H   0  0  0  0  0  0  0  0  0  0  0  0
    4.2750    3.4585    3.3706 H   0  0  0  0  0  0  0  0  0  0  0  0
    1.9040    1.6900    3.6904 C   0  0  0  0  0  0  0  0  0  0  0  0
    1.4397    2.7504    2.6936 C   0  0  0  0  0  0  0  0  0  0  0  0
    1.0842    1.4612    4.3751 H   0  0  0  0  0  0  0  0  0  0  0  0
    2.1849    0.7843    3.1439 H   0  0  0  0  0  0  0  0  0  0  0  0
    0.7268    3.9553    3.3163 C   0  0  0  0  0  0  0  0  0  0  0  0
    0.7330    2.2431    2.0341 H   0  0  0  0  0  0  0  0  0  0  0  0
    2.2703    3.0893    2.0726 H   0  0  0  0  0  0  0  0  0  0  0  0
    1.6619    5.0733    3.7666 C   0  0  0  0  0  0  0  0  0  0  0  0
    0.1207    3.6173    4.1572 H   0  0  0  0  0  0  0  0  0  0  0  0
    0.0487    4.3678    2.5667 H   0  0  0  0  0  0  0  0  0  0  0  0
    2.3377    5.3546    2.9603 H   0  0  0  0  0  0  0  0  0  0  0  0
    2.2454    4.8001    4.6414 H   0  0  0  0  0  0  0  0  0  0  0  0
    1.0750    5.9498    4.0304 H   0  0  0  0  0  0  0  0  0  0  0  0
    2.8076    2.8734    5.1282 H   0  0  0  0  0  0  0  0  0  0  0  0
    5.7377   12.3908    4.6166 C   0  0  0  0  0  0  0  0  0  0  0  0
    6.1109   11.8946    5.7900 C   0  0  0  0  0  0  0  0  0  0  0  0
    6.4549   12.5785    3.8365 H   0  0  0  0  0  0  0  0  0  0  0  0
    4.7158   12.6450    4.3860 H   0  0  0  0  0  0  0  0  0  0  0  0
    5.2306   11.5871    6.9112 C   0  0  0  0  0  0  0  0  0  0  0  0
    7.1532   11.6699    5.9745 H   0  0  0  0  0  0  0  0  0  0  0  0
    5.7941   11.3623    8.1684 C   0  0  0  0  0  0  0  0  0  0  0  0
    5.0071   11.0091    9.2463 C   0  0  0  0  0  0  0  0  0  0  0  0
    3.6312   10.8573    9.1050 C   0  0  0  0  0  0  0  0  0  0  0  0
    3.8452   11.4816    6.7848 C   0  0  0  0  0  0  0  0  0  0  0  0
    3.0603   11.1227    7.8642 C   0  0  0  0  0  0  0  0  0  0  0  0
    3.3750   11.6671    5.8306 H   0  0  0  0  0  0  0  0  0  0  0  0
    1.9868   11.0528    7.7406 H   0  0  0  0  0  0  0  0  0  0  0  0
    5.4710   10.8399   10.2059 H   0  0  0  0  0  0  0  0  0  0  0  0
    6.8617   11.4531    8.2904 H   0  0  0  0  0  0  0  0  0  0  0  0
    2.7782   10.3962   10.2600 C   0  0  0  0  0  0  0  0  0  0  0  0
    2.6355    8.9502   10.4333 N   0  0  0  0  0  0  0  0  0  0  0  0
    1.7637   10.7918   10.1529 H   0  0  0  0  0  0  0  0  0  0  0  0
    3.1867   10.7744   11.1988 H   0  0  0  0  0  0  0  0  0  0  0  0
    2.0836    8.2079    9.3527 C   0  0  0  0  0  0  0  0  0  0  0  0
    3.8166    8.2020   10.8199 C   0  0  0  0  0  0  0  0  0  0  0  0
    4.4169    7.6994    9.5009 C   0  0  0  0  0  0  0  0  0  0  0  0
    3.5005    7.3565   11.4394 H   0  0  0  0  0  0  0  0  0  0  0  0
    4.5053    8.8204   11.3874 H   0  0  0  0  0  0  0  0  0  0  0  0
    3.2195    7.4649    8.6553 N   0  0  0  0  0  0  0  0  0  0  0  0
    5.0089    6.7940    9.6074 H   0  0  0  0  0  0  0  0  0  0  0  0
    5.0466    8.4560    9.0280 H   0  0  0  0  0  0  0  0  0  0  0  0
    1.5528    8.8438    8.6447 H   0  0  0  0  0  0  0  0  0  0  0  0
    1.4090    7.4321    9.7335 H   0  0  0  0  0  0  0  0  0  0  0  0
    3.4068    7.8088    7.2355 C   0  0  0  0  0  0  0  0  0  0  0  0
    4.3466    6.8235    6.5558 C   0  0  0  0  0  0  0  0  0  0  0  0
    3.8238    8.8147    7.1784 H   0  0  0  0  0  0  0  0  0  0  0  0
    2.4285    7.7793    6.7492 H   0  0  0  0  0  0  0  0  0  0  0  0
    4.5050    7.1395    5.0671 C   0  0  0  0  0  0  0  0  0  0  0  0
    3.9469    5.8130    6.6736 H   0  0  0  0  0  0  0  0  0  0  0  0
    5.3236    6.8776    7.0339 H   0  0  0  0  0  0  0  0  0  0  0  0
    5.0084    8.5576    4.8111 C   0  0  0  0  0  0  0  0  0  0  0  0
    3.5507    6.9925    4.5555 H   0  0  0  0  0  0  0  0  0  0  0  0
    5.2253    6.4331    4.6542 H   0  0  0  0  0  0  0  0  0  0  0  0
    5.4114    8.6420    3.8052 H   0  0  0  0  0  0  0  0  0  0  0  0
    5.7920    8.8108    5.5193 H   0  0  0  0  0  0  0  0  0  0  0  0
    4.2069    9.2843    4.9125 H   0  0  0  0  0  0  0  0  0  0  0  0
    2.9711    6.4625    8.7027 H   0  0  0  0  0  0  0  0  0  0  0  0
  1  3  1  0  0  0  0
  1  4  1  0  0  0  0
  1  5  1  0  0  0  0
  2  6  1  0  0  0  0
  2  7  1  0  0  0  0
  2  8  1  0  0  0  0
  1  9  1  0  0  0  0
  2 10  1  0  0  0  0
  9 11  1  0  0  0  0
 10 11  1  0  0  0  0
  9 12  2  0  0  0  0
  9 13  2  0  0  0  0
 10 14  2  0  0  0  0
 10 15  2  0  0  0  0
 16 18  1  0  0  0  0
 16 19  1  0  0  0  0
 16 20  1  0  0  0  0
 17 21  1  0  0  0  0
 17 22  1  0  0  0  0
 17 23  1  0  0  0  0
 16 24  1  0  0  0  0
 17 25  1  0  0  0  0
 24 26  1  0  0  0  0
 25 26  1  0  0  0  0
 24 27  2  0  0  0  0
 24 28  2  0  0  0  0
 25 29  2  0  0  0  0
 25 30  2  0  0  0  0
 31 32  2  0  0  0  0
 31 33  1  0  0  0  0
 31 34  1  0  0  0  0
 32 35  1  0  0  0  0
 32 36  1  0  0  0  0
 35 37  4  0  0  0  0
 37 38  4  0  0  0  0
 38 39  4  0  0  0  0
 35 40  4  0  0  0  0
 39 41  4  0  0  0  0
 40 41  4  0  0  0  0
 40 42  1  0  0  0  0
 41 43  1  0  0  0  0
 38 44  1  0  0  0  0
 37 45  1  0  0  0  0
 39 46  1  0  0  0  0
 46 47  1  0  0  0  0
 46 48  1  0  0  0  0
 46 49  1  0  0  0  0
 47 50  1  0  0  0  0
 47 51  1  0  0  0  0
 51 52  1  0  0  0  0
 51 53  1  0  0  0  0
 51 54  1  0  0  0  0
 50 55  1  0  0  0  0
 52 55  1  0  0  0  0
 52 56  1  0  0  0  0
 52 57  1  0  0  0  0
 50 58  1  0  0  0  0
 50 59  1  0  0  0  0
 55 60  1  0  0  0  0
 60 61  1  0  0  0  0
 60 62  1  0  0  0  0
 60 63  1  0  0  0  0
 61 64  1  0  0  0  0
 61 65  1  0  0  0  0
 61 66  1  0  0  0  0
 64 67  1  0  0  0  0
 64 68  1  0  0  0  0
 64 69  1  0  0  0  0
 67 70  1  0  0  0  0
 67 71  1  0  0  0  0
 67 72  1  0  0  0  0
 55 73  1  0  0  0  0
 74 75  2  0  0  0  0
 74 76  1  0  0  0  0
 74 77  1  0  0  0  0
 75 78  1  0  0  0  0
 75 79  1  0  0  0  0
 78 80  4  0  0  0  0
 80 81  4  0  0  0  0
 81 82  4  0  0  0  0
 78 83  4  0  0  0  0
 82 84  4  0  0  0  0
 83 84  4  0  0  0  0
 83 85  1  0  0  0  0
 84 86  1  0  0  0  0
 81 87  1  0  0  0  0
 80 88  1  0  0  0  0
 82 89  1  0  0  0  0
 89 90  1  0  0  0  0
 89 91  1  0  0  0  0
 89 92  1  0  0  0  0
 90 93  1  0  0  0  0
 90 94  1  0  0  0  0
 94 95  1  0  0  0  0
 94 96  1  0  0  0  0
 94 97  1  0  0  0  0
 93 98  1  0  0  0  0
 95 98  1  0  0  0  0
 95 99  1  0  0  0  0
 95100  1  0  0  0  0
 93101  1  0  0  0  0
 93102  1  0  0  0  0
 98103  1  0  0  0  0
103104  1  0  0  0  0
103105  1  0  0  0  0
103106  1  0  0  0  0
104107  1  0  0  0  0
104108  1  0  0  0  0
104109  1  0  0  0  0
107110  1  0  0  0  0
107111  1  0  0  0  0
107112  1  0  0  0  0
110113  1  0  0  0  0
110114  1  0  0  0  0
110115  1  0  0  0  0
 98116  1  0  0  0  0
M  END
