 xtb: 6.7.1 (edcfbbe)
          10212513393D

116116  0     0  0            999 V2000
    4.9917   11.3142    7.1847 C   0  0  0  0  0  0  0  0  0  0  0  0
    1.6470    8.6304    9.3530 C   0  0  0  0  0  0  0  0  0  0  0  0
    4.1695   12.2399    6.7207 F   0  0  0  0  0  0  0  0  0  0  0  0
    5.2786   11.5753    8.4590 F   0  0  0  0  0  0  0  0  0  0  0  0
    6.1387   11.4267    6.5060 F   0  0  0  0  0  0  0  0  0  0  0  0
    0.5612    9.0357   10.0038 F   0  0  0  0  0  0  0  0  0  0  0  0
    1.2772    8.2746    8.1204 F   0  0  0  0  0  0  0  0  0  0  0  0
    2.0840    7.5099    9.9552 F   0  0  0  0  0  0  0  0  0  0  0  0
    4.3211    9.5607    7.0170 S   0  0  0  0  0  0  0  0  0  0  0  0
    3.0699    9.8800    9.3519 S   0  0  0  0  0  0  0  0  0  0  0  0
    4.1311    9.0624    8.4987 N   0  0  0  0  0  0  0  0  0  0  0  0
    3.1371    9.5991    6.2268 O   0  0  0  0  0  0  0  0  0  0  0  0
    5.4175    8.7862    6.4607 O   0  0  0  0  0  0  0  0  0  0  0  0
    3.4359    9.9398   10.7264 O   0  0  0  0  0  0  0  0  0  0  0  0
    2.6114   11.0478    8.6783 O   0  0  0  0  0  0  0  0  0  0  0  0
   10.8187    8.2565    6.4950 C   0  0  0  0  0  0  0  0  0  0  0  0
    7.1848    9.8107    4.1037 C   0  0  0  0  0  0  0  0  0  0  0  0
   10.7231    9.4957    6.0277 F   0  0  0  0  0  0  0  0  0  0  0  0
   11.6610    8.2762    7.5299 F   0  0  0  0  0  0  0  0  0  0  0  0
   11.3874    7.4953    5.5527 F   0  0  0  0  0  0  0  0  0  0  0  0
    5.8987   10.0860    4.2281 F   0  0  0  0  0  0  0  0  0  0  0  0
    7.9044   10.8495    4.4951 F   0  0  0  0  0  0  0  0  0  0  0  0
    7.4096    9.6523    2.7821 F   0  0  0  0  0  0  0  0  0  0  0  0
    9.1319    7.5568    7.0149 S   0  0  0  0  0  0  0  0  0  0  0  0
    7.8436    8.2380    4.8900 S   0  0  0  0  0  0  0  0  0  0  0  0
    8.0556    8.5298    6.4203 N   0  0  0  0  0  0  0  0  0  0  0  0
    9.1100    6.2528    6.3958 O   0  0  0  0  0  0  0  0  0  0  0  0
    9.1310    7.5554    8.4424 O   0  0  0  0  0  0  0  0  0  0  0  0
    9.1041    8.0788    4.2010 O   0  0  0  0  0  0  0  0  0  0  0  0
    6.9102    7.1928    4.5596 O   0  0  0  0  0  0  0  0  0  0  0  0
    2.5286    1.7692    0.4949 C   0  0  0  0  0  0  0  0  0  0  0  0
    3.5873    2.4175    0.9643 C   0  0  0  0  0  0  0  0  0  0  0  0
    2.5980    1.1280   -0.3671 H   0  0  0  0  0  0  0  0  0  0  0  0
    1.5520    1.8587    0.9379 H   0  0  0  0  0  0  0  0  0  0  0  0
    3.6098    3.3195    2.1097 C   0  0  0  0  0  0  0  0  0  0  0  0
    4.5405    2.3078    0.4597 H   0  0  0  0  0  0  0  0  0  0  0  0
    2.5837    3.3724    3.0546 C   0  0  0  0  0  0  0  0  0  0  0  0
    2.6450    4.2507    4.1178 C   0  0  0  0  0  0  0  0  0  0  0  0
    3.7275    5.1100    4.2675 C   0  0  0  0  0  0  0  0  0  0  0  0
    4.7015    4.1724    2.2781 C   0  0  0  0  0  0  0  0  0  0  0  0
    4.7581    5.0595    3.3358 C   0  0  0  0  0  0  0  0  0  0  0  0
    5.5064    4.1394    1.5541 H   0  0  0  0  0  0  0  0  0  0  0  0
    5.5945    5.7318    3.4545 H   0  0  0  0  0  0  0  0  0  0  0  0
    1.8484    4.2783    4.8451 H   0  0  0  0  0  0  0  0  0  0  0  0
    1.7356    2.7124    2.9601 H   0  0  0  0  0  0  0  0  0  0  0  0
    3.8115    6.0546    5.4324 C   0  0  0  0  0  0  0  0  0  0  0  0
    3.9674    5.2944    6.6815 N   0  0  0  0  0  0  0  0  0  0  0  0
    2.8815    6.6213    5.5228 H   0  0  0  0  0  0  0  0  0  0  0  0
    4.6310    6.7641    5.2704 H   0  0  0  0  0  0  0  0  0  0  0  0
    4.0873    6.1171    7.8362 C   0  0  0  0  0  0  0  0  0  0  0  0
    5.1749    4.4942    6.7312 C   0  0  0  0  0  0  0  0  0  0  0  0
    6.2806    5.4685    7.1824 C   0  0  0  0  0  0  0  0  0  0  0  0
    5.3773    4.0479    5.7609 H   0  0  0  0  0  0  0  0  0  0  0  0
    5.0266    3.6990    7.4679 H   0  0  0  0  0  0  0  0  0  0  0  0
    5.5486    6.5243    7.9231 N   0  0  0  0  0  0  0  0  0  0  0  0
    6.7794    5.9083    6.3211 H   0  0  0  0  0  0  0  0  0  0  0  0
    7.0316    5.0035    7.8170 H   0  0  0  0  0  0  0  0  0  0  0  0
    3.8488    5.5367    8.7306 H   0  0  0  0  0  0  0  0  0  0  0  0
    3.4667    7.0080    7.7869 H   0  0  0  0  0  0  0  0  0  0  0  0
    6.0464    6.8182    9.2845 C   0  0  0  0  0  0  0  0  0  0  0  0
    5.8943    5.6579   10.2702 C   0  0  0  0  0  0  0  0  0  0  0  0
    5.4938    7.6915    9.6386 H   0  0  0  0  0  0  0  0  0  0  0  0
    7.0975    7.0965    9.1815 H   0  0  0  0  0  0  0  0  0  0  0  0
    6.9299    5.7503   11.3955 C   0  0  0  0  0  0  0  0  0  0  0  0
    6.0239    4.6988    9.7636 H   0  0  0  0  0  0  0  0  0  0  0  0
    4.8968    5.6771   10.7127 H   0  0  0  0  0  0  0  0  0  0  0  0
    8.3358    5.3724   10.9400 C   0  0  0  0  0  0  0  0  0  0  0  0
    6.6266    5.0776   12.2007 H   0  0  0  0  0  0  0  0  0  0  0  0
    6.9319    6.7648   11.7931 H   0  0  0  0  0  0  0  0  0  0  0  0
    8.7043    6.0459   10.1709 H   0  0  0  0  0  0  0  0  0  0  0  0
    8.3499    4.3555   10.5511 H   0  0  0  0  0  0  0  0  0  0  0  0
    9.0215    5.4204   11.7820 H   0  0  0  0  0  0  0  0  0  0  0  0
    5.6272    7.4223    7.3916 H   0  0  0  0  0  0  0  0  0  0  0  0
    7.0194    0.4592    0.1824 C   0  0  0  0  0  0  0  0  0  0  0  0
    7.0199    1.4831   -0.6615 C   0  0  0  0  0  0  0  0  0  0  0  0
    6.2858   -0.3245    0.1113 H   0  0  0  0  0  0  0  0  0  0  0  0
    7.7330    0.3662    0.9839 H   0  0  0  0  0  0  0  0  0  0  0  0
    7.9520    2.6054   -0.6361 C   0  0  0  0  0  0  0  0  0  0  0  0
    6.2580    1.5429   -1.4284 H   0  0  0  0  0  0  0  0  0  0  0  0
    7.5885    3.8113   -1.2376 C   0  0  0  0  0  0  0  0  0  0  0  0
    8.4244    4.9105   -1.1960 C   0  0  0  0  0  0  0  0  0  0  0  0
    9.6610    4.8430   -0.5636 C   0  0  0  0  0  0  0  0  0  0  0  0
    9.2136    2.5216   -0.0457 C   0  0  0  0  0  0  0  0  0  0  0  0
   10.0541    3.6207   -0.0128 C   0  0  0  0  0  0  0  0  0  0  0  0
    9.5485    1.5833    0.3697 H   0  0  0  0  0  0  0  0  0  0  0  0
   11.0503    3.5138    0.4004 H   0  0  0  0  0  0  0  0  0  0  0  0
    8.1168    5.8297   -1.6720 H   0  0  0  0  0  0  0  0  0  0  0  0
    6.6320    3.8882   -1.7335 H   0  0  0  0  0  0  0  0  0  0  0  0
   10.5137    6.0789   -0.4054 C   0  0  0  0  0  0  0  0  0  0  0  0
   10.2778    6.8326    0.8277 N   0  0  0  0  0  0  0  0  0  0  0  0
   10.3202    6.7679   -1.2305 H   0  0  0  0  0  0  0  0  0  0  0  0
   11.5744    5.8192   -0.4262 H   0  0  0  0  0  0  0  0  0  0  0  0
   10.7006    6.2307    2.0376 C   0  0  0  0  0  0  0  0  0  0  0  0
    8.8952    7.1720    1.1170 C   0  0  0  0  0  0  0  0  0  0  0  0
    8.3577    6.0231    2.0094 C   0  0  0  0  0  0  0  0  0  0  0  0
    8.3182    7.3058    0.2065 H   0  0  0  0  0  0  0  0  0  0  0  0
    8.8908    8.1007    1.6871 H   0  0  0  0  0  0  0  0  0  0  0  0
    9.5752    5.2751    2.4097 N   0  0  0  0  0  0  0  0  0  0  0  0
    7.6771    5.3649    1.4711 H   0  0  0  0  0  0  0  0  0  0  0  0
    7.8702    6.4226    2.8973 H   0  0  0  0  0  0  0  0  0  0  0  0
   10.7352    6.9793    2.8366 H   0  0  0  0  0  0  0  0  0  0  0  0
   11.6496    5.7010    1.9534 H   0  0  0  0  0  0  0  0  0  0  0  0
    9.6272    4.7785    3.7924 C   0  0  0  0  0  0  0  0  0  0  0  0
    8.6442    3.6367    4.0182 C   0  0  0  0  0  0  0  0  0  0  0  0
    9.4197    5.5977    4.4837 H   0  0  0  0  0  0  0  0  0  0  0  0
   10.6454    4.4267    3.9774 H   0  0  0  0  0  0  0  0  0  0  0  0
    8.8490    3.0527    5.4158 C   0  0  0  0  0  0  0  0  0  0  0  0
    8.7951    2.8537    3.2664 H   0  0  0  0  0  0  0  0  0  0  0  0
    7.6213    4.0034    3.9290 H   0  0  0  0  0  0  0  0  0  0  0  0
    7.8780    1.9152    5.7056 C   0  0  0  0  0  0  0  0  0  0  0  0
    8.7279    3.8589    6.1387 H   0  0  0  0  0  0  0  0  0  0  0  0
    9.8714    2.6796    5.5030 H   0  0  0  0  0  0  0  0  0  0  0  0
    6.8490    2.2508    5.6129 H   0  0  0  0  0  0  0  0  0  0  0  0
    8.0278    1.5392    6.7135 H   0  0  0  0  0  0  0  0  0  0  0  0
    8.0317    1.0926    5.0101 H   0  0  0  0  0  0  0  0  0  0  0  0
    9.6607    4.4661    1.7688 H   0  0  0  0  0  0  0  0  0  0  0  0
  1  3  1  0  0  0  0
  1  4  1  0  0  0  0
  1  5  1  0  0  0  0
  2  6  1  0  0  0  0
  2  7  1  0  0  0  0
  2  8  1  0  0  0  0
  1  9  1  0  0  0  0
  2 10  1  0  0  0  0
  9 11  1  0  0  0  0
 10 11  1  0  0  0  0
  9 12  2  0  0  0  0
  9 13  2  0  0  0  0
 10 14  2  0  0  0  0
 10 15  2  0  0  0  0
 16 18  1  0  0  0  0
 16 19  1  0  0  0  0
 16 20  1  0  0  0  0
 17 21  1  0  0  0  0
 17 22  1  0  0  0  0
 17 23  1  0  0  0  0
 16 24  1  0  0  0  0
 17 25  1  0  0  0  0
 24 26  1  0  0  0  0
 25 26  1  0  0  0  0
 24 27  2  0  0  0  0
 24 28  2  0  0  0  0
 25 29  2  0  0  0  0
 25 30  2  0  0  0  0
 31 32  2  0  0  0  0
 31 33  1  0  0  0  0
 31 34  1  0  0  0  0
 32 35  1  0  0  0  0
 32 36  1  0  0  0  0
 35 37  4  0  0  0  0
 37 38  4  0  0  0  0
 38 39  4  0  0  0  0
 35 40  4  0  0  0  0
 39 41  4  0  0  0  0
 40 41  4  0  0  0  0
 40 42  1  0  0  0  0
 41 43  1  0  0  0  0
 38 44  1  0  0  0  0
 37 45  1  0  0  0  0
 39 46  1  0  0  0  0
 46 47  1  0  0  0  0
 46 48  1  0  0  0  0
 46 49  1  0  0  0  0
 47 50  1  0  0  0  0
 47 51  1  0  0  0  0
 51 52  1  0  0  0  0
 51 53  1  0  0  0  0
 51 54  1  0  0  0  0
 50 55  1  0  0  0  0
 52 55  1  0  0  0  0
 52 56  1  0  0  0  0
 52 57  1  0  0  0  0
 50 58  1  0  0  0  0
 50 59  1  0  0  0  0
 55 60  1  0  0  0  0
 60 61  1  0  0  0  0
 60 62  1  0  0  0  0
 60 63  1  0  0  0  0
 61 64  1  0  0  0  0
 61 65  1  0  0  0  0
 61 66  1  0  0  0  0
 64 67  1  0  0  0  0
 64 68  1  0  0  0  0
 64 69  1  0  0  0  0
 67 70  1  0  0  0  0
 67 71  1  0  0  0  0
 67 72  1  0  0  0  0
 55 73  1  0  0  0  0
 74 75  2  0  0  0  0
 74 76  1  0  0  0  0
 74 77  1  0  0  0  0
 75 78  1  0  0  0  0
 75 79  1  0  0  0  0
 78 80  4  0  0  0  0
 80 81  4  0  0  0  0
 81 82  4  0  0  0  0
 78 83  4  0  0  0  0
 82 84  4  0  0  0  0
 83 84  4  0  0  0  0
 83 85  1  0  0  0  0
 84 86  1  0  0  0  0
 81 87  1  0  0  0  0
 80 88  1  0  0  0  0
 82 89  1  0  0  0  0
 89 90  1  0  0  0  0
 89 91  1  0  0  0  0
 89 92  1  0  0  0  0
 90 93  1  0  0  0  0
 90 94  1  0  0  0  0
 94 95  1  0  0  0  0
 94 96  1  0  0  0  0
 94 97  1  0  0  0  0
 93 98  1  0  0  0  0
 95 98  1  0  0  0  0
 95 99  1  0  0  0  0
 95100  1  0  0  0  0
 93101  1  0  0  0  0
 93102  1  0  0  0  0
 98103  1  0  0  0  0
103104  1  0  0  0  0
103105  1  0  0  0  0
103106  1  0  0  0  0
104107  1  0  0  0  0
104108  1  0  0  0  0
104109  1  0  0  0  0
107110  1  0  0  0  0
107111  1  0  0  0  0
107112  1  0  0  0  0
110113  1  0  0  0  0
110114  1  0  0  0  0
110115  1  0  0  0  0
 98116  1  0  0  0  0
M  END
