 xtb: 6.7.1 (edcfbbe)
          10212513343D

116116  0     0  0            999 V2000
    4.0516    8.0038    9.0244 C   0  0  0  0  0  0  0  0  0  0  0  0
    7.8207    5.9719   11.0047 C   0  0  0  0  0  0  0  0  0  0  0  0
    3.8290    9.2402    9.4496 F   0  0  0  0  0  0  0  0  0  0  0  0
    4.8285    8.0479    7.9467 F   0  0  0  0  0  0  0  0  0  0  0  0
    2.8844    7.4501    8.6926 F   0  0  0  0  0  0  0  0  0  0  0  0
    9.0055    6.0224   11.6414 F   0  0  0  0  0  0  0  0  0  0  0  0
    6.9888    5.3063   11.7902 F   0  0  0  0  0  0  0  0  0  0  0  0
    8.0539    5.2572    9.8970 F   0  0  0  0  0  0  0  0  0  0  0  0
    4.8218    6.9288   10.3717 S   0  0  0  0  0  0  0  0  0  0  0  0
    7.2712    7.7616   10.6362 S   0  0  0  0  0  0  0  0  0  0  0  0
    5.8091    7.8814   11.1657 N   0  0  0  0  0  0  0  0  0  0  0  0
    3.7117    6.4974   11.1513 O   0  0  0  0  0  0  0  0  0  0  0  0
    5.5507    5.9218    9.6480 O   0  0  0  0  0  0  0  0  0  0  0  0
    7.4163    7.8779    9.1990 O   0  0  0  0  0  0  0  0  0  0  0  0
    8.2137    8.5385   11.3764 O   0  0  0  0  0  0  0  0  0  0  0  0
    5.1908    8.6872    1.9429 C   0  0  0  0  0  0  0  0  0  0  0  0
    1.4485    8.3635    3.9621 C   0  0  0  0  0  0  0  0  0  0  0  0
    5.8419    9.6807    2.5502 F   0  0  0  0  0  0  0  0  0  0  0  0
    6.0458    8.1176    1.0851 F   0  0  0  0  0  0  0  0  0  0  0  0
    4.2071    9.2292    1.2317 F   0  0  0  0  0  0  0  0  0  0  0  0
    0.5186    9.0604    4.6274 F   0  0  0  0  0  0  0  0  0  0  0  0
    1.8296    9.1055    2.9300 F   0  0  0  0  0  0  0  0  0  0  0  0
    0.8319    7.2664    3.5085 F   0  0  0  0  0  0  0  0  0  0  0  0
    4.5166    7.4283    3.1777 S   0  0  0  0  0  0  0  0  0  0  0  0
    2.8815    7.9358    5.1373 S   0  0  0  0  0  0  0  0  0  0  0  0
    4.1802    8.3918    4.3872 N   0  0  0  0  0  0  0  0  0  0  0  0
    3.3418    6.8944    2.5615 O   0  0  0  0  0  0  0  0  0  0  0  0
    5.6008    6.5208    3.4123 O   0  0  0  0  0  0  0  0  0  0  0  0
    2.7717    6.5004    5.2751 O   0  0  0  0  0  0  0  0  0  0  0  0
    2.6051    8.7003    6.3041 O   0  0  0  0  0  0  0  0  0  0  0  0
    4.1189   11.2667    6.4429 C   0  0  0  0  0  0  0  0  0  0  0  0
    4.7301   11.4843    7.6005 C   0  0  0  0  0  0  0  0  0  0  0  0
    3.0501   11.3408    6.3532 H   0  0  0  0  0  0  0  0  0  0  0  0
    4.6457   10.9475    5.5590 H   0  0  0  0  0  0  0  0  0  0  0  0
    6.1693   11.3735    7.8164 C   0  0  0  0  0  0  0  0  0  0  0  0
    4.1506   11.7291    8.4808 H   0  0  0  0  0  0  0  0  0  0  0  0
    6.6676   11.0231    9.0712 C   0  0  0  0  0  0  0  0  0  0  0  0
    8.0259   10.8824    9.2857 C   0  0  0  0  0  0  0  0  0  0  0  0
    8.9308   11.1098    8.2558 C   0  0  0  0  0  0  0  0  0  0  0  0
    7.0822   11.6378    6.7952 C   0  0  0  0  0  0  0  0  0  0  0  0
    8.4395   11.5165    7.0160 C   0  0  0  0  0  0  0  0  0  0  0  0
    6.7216   11.9516    5.8278 H   0  0  0  0  0  0  0  0  0  0  0  0
    9.1319   11.7570    6.2189 H   0  0  0  0  0  0  0  0  0  0  0  0
    8.3782   10.5957   10.2642 H   0  0  0  0  0  0  0  0  0  0  0  0
    5.9832   10.8375    9.8857 H   0  0  0  0  0  0  0  0  0  0  0  0
   10.4089   10.8836    8.4401 C   0  0  0  0  0  0  0  0  0  0  0  0
   10.8650    9.5187    8.1506 N   0  0  0  0  0  0  0  0  0  0  0  0
   10.7098   11.1084    9.4628 H   0  0  0  0  0  0  0  0  0  0  0  0
   10.9670   11.5433    7.7666 H   0  0  0  0  0  0  0  0  0  0  0  0
   10.2490    8.8585    7.0348 C   0  0  0  0  0  0  0  0  0  0  0  0
   10.8692    8.5715    9.2670 C   0  0  0  0  0  0  0  0  0  0  0  0
   10.4555    7.2460    8.6299 C   0  0  0  0  0  0  0  0  0  0  0  0
   10.1511    8.8495   10.0463 H   0  0  0  0  0  0  0  0  0  0  0  0
   11.8684    8.5214    9.7076 H   0  0  0  0  0  0  0  0  0  0  0  0
    9.5050    7.6935    7.5933 N   0  0  0  0  0  0  0  0  0  0  0  0
    9.9886    6.5681    9.3365 H   0  0  0  0  0  0  0  0  0  0  0  0
   11.3016    6.7533    8.1441 H   0  0  0  0  0  0  0  0  0  0  0  0
   11.0262    8.4480    6.3700 H   0  0  0  0  0  0  0  0  0  0  0  0
    9.5996    9.5250    6.4685 H   0  0  0  0  0  0  0  0  0  0  0  0
    9.0551    6.6707    6.6236 C   0  0  0  0  0  0  0  0  0  0  0  0
    7.6241    6.9310    6.1497 C   0  0  0  0  0  0  0  0  0  0  0  0
    9.0762    5.7026    7.1289 H   0  0  0  0  0  0  0  0  0  0  0  0
    9.7600    6.6466    5.7885 H   0  0  0  0  0  0  0  0  0  0  0  0
    7.3883    8.2835    5.4793 C   0  0  0  0  0  0  0  0  0  0  0  0
    6.9613    6.8555    7.0116 H   0  0  0  0  0  0  0  0  0  0  0  0
    7.3510    6.1512    5.4383 H   0  0  0  0  0  0  0  0  0  0  0  0
    8.2037    8.4708    4.2033 C   0  0  0  0  0  0  0  0  0  0  0  0
    7.5671    9.0922    6.1882 H   0  0  0  0  0  0  0  0  0  0  0  0
    6.3301    8.3344    5.2191 H   0  0  0  0  0  0  0  0  0  0  0  0
    8.0073    9.4515    3.7797 H   0  0  0  0  0  0  0  0  0  0  0  0
    7.9083    7.7200    3.4747 H   0  0  0  0  0  0  0  0  0  0  0  0
    9.2757    8.3856    4.3736 H   0  0  0  0  0  0  0  0  0  0  0  0
    8.6421    8.0005    8.1162 H   0  0  0  0  0  0  0  0  0  0  0  0
    6.8496    2.6683    3.1680 C   0  0  0  0  0  0  0  0  0  0  0  0
    5.7958    1.8726    3.0266 C   0  0  0  0  0  0  0  0  0  0  0  0
    7.8516    2.2791    3.1077 H   0  0  0  0  0  0  0  0  0  0  0  0
    6.7563    3.7271    3.3408 H   0  0  0  0  0  0  0  0  0  0  0  0
    4.4006    2.2899    3.1014 C   0  0  0  0  0  0  0  0  0  0  0  0
    5.9460    0.8131    2.8556 H   0  0  0  0  0  0  0  0  0  0  0  0
    3.3877    1.3291    3.0443 C   0  0  0  0  0  0  0  0  0  0  0  0
    2.0560    1.6845    3.1582 C   0  0  0  0  0  0  0  0  0  0  0  0
    1.6914    3.0159    3.3357 C   0  0  0  0  0  0  0  0  0  0  0  0
    4.0256    3.6287    3.2287 C   0  0  0  0  0  0  0  0  0  0  0  0
    2.6948    3.9825    3.3456 C   0  0  0  0  0  0  0  0  0  0  0  0
    4.7595    4.4172    3.2301 H   0  0  0  0  0  0  0  0  0  0  0  0
    2.4470    5.0307    3.4032 H   0  0  0  0  0  0  0  0  0  0  0  0
    1.2947    0.9184    3.0973 H   0  0  0  0  0  0  0  0  0  0  0  0
    3.6504    0.2890    2.9094 H   0  0  0  0  0  0  0  0  0  0  0  0
    0.2614    3.4248    3.5829 C   0  0  0  0  0  0  0  0  0  0  0  0
   -0.1049    3.5013    5.0018 N   0  0  0  0  0  0  0  0  0  0  0  0
   -0.4283    2.7112    3.1253 H   0  0  0  0  0  0  0  0  0  0  0  0
    0.0773    4.4106    3.1541 H   0  0  0  0  0  0  0  0  0  0  0  0
    0.5160    4.5252    5.7660 C   0  0  0  0  0  0  0  0  0  0  0  0
    0.1568    2.3015    5.7682 C   0  0  0  0  0  0  0  0  0  0  0  0
    1.5760    2.4868    6.3592 C   0  0  0  0  0  0  0  0  0  0  0  0
    0.0757    1.4131    5.1470 H   0  0  0  0  0  0  0  0  0  0  0  0
   -0.5821    2.2354    6.5715 H   0  0  0  0  0  0  0  0  0  0  0  0
    1.8358    3.9400    6.2476 N   0  0  0  0  0  0  0  0  0  0  0  0
    2.3203    1.9225    5.7996 H   0  0  0  0  0  0  0  0  0  0  0  0
    1.6084    2.1898    7.4063 H   0  0  0  0  0  0  0  0  0  0  0  0
   -0.0824    4.7412    6.6573 H   0  0  0  0  0  0  0  0  0  0  0  0
    0.7057    5.4393    5.2079 H   0  0  0  0  0  0  0  0  0  0  0  0
    2.3952    4.5619    7.4651 C   0  0  0  0  0  0  0  0  0  0  0  0
    3.7605    3.9801    7.8118 C   0  0  0  0  0  0  0  0  0  0  0  0
    1.6909    4.4214    8.2882 H   0  0  0  0  0  0  0  0  0  0  0  0
    2.4929    5.6253    7.2509 H   0  0  0  0  0  0  0  0  0  0  0  0
    4.7688    4.0901    6.6667 C   0  0  0  0  0  0  0  0  0  0  0  0
    3.6723    2.9359    8.1223 H   0  0  0  0  0  0  0  0  0  0  0  0
    4.1510    4.5412    8.6620 H   0  0  0  0  0  0  0  0  0  0  0  0
    6.1713    3.7605    7.1647 C   0  0  0  0  0  0  0  0  0  0  0  0
    4.7493    5.1043    6.2637 H   0  0  0  0  0  0  0  0  0  0  0  0
    4.5156    3.3988    5.8562 H   0  0  0  0  0  0  0  0  0  0  0  0
    6.4440    4.4402    7.9663 H   0  0  0  0  0  0  0  0  0  0  0  0
    6.8910    3.8469    6.3554 H   0  0  0  0  0  0  0  0  0  0  0  0
    6.2079    2.7429    7.5482 H   0  0  0  0  0  0  0  0  0  0  0  0
    2.5048    4.1435    5.4853 H   0  0  0  0  0  0  0  0  0  0  0  0
  1  3  1  0  0  0  0
  1  4  1  0  0  0  0
  1  5  1  0  0  0  0
  2  6  1  0  0  0  0
  2  7  1  0  0  0  0
  2  8  1  0  0  0  0
  1  9  1  0  0  0  0
  2 10  1  0  0  0  0
  9 11  1  0  0  0  0
 10 11  1  0  0  0  0
  9 12  2  0  0  0  0
  9 13  2  0  0  0  0
 10 14  2  0  0  0  0
 10 15  2  0  0  0  0
 16 18  1  0  0  0  0
 16 19  1  0  0  0  0
 16 20  1  0  0  0  0
 17 21  1  0  0  0  0
 17 22  1  0  0  0  0
 17 23  1  0  0  0  0
 16 24  1  0  0  0  0
 17 25  1  0  0  0  0
 24 26  1  0  0  0  0
 25 26  1  0  0  0  0
 24 27  2  0  0  0  0
 24 28  2  0  0  0  0
 25 29  2  0  0  0  0
 25 30  2  0  0  0  0
 31 32  2  0  0  0  0
 31 33  1  0  0  0  0
 31 34  1  0  0  0  0
 32 35  1  0  0  0  0
 32 36  1  0  0  0  0
 35 37  4  0  0  0  0
 37 38  4  0  0  0  0
 38 39  4  0  0  0  0
 35 40  4  0  0  0  0
 39 41  4  0  0  0  0
 40 41  4  0  0  0  0
 40 42  1  0  0  0  0
 41 43  1  0  0  0  0
 38 44  1  0  0  0  0
 37 45  1  0  0  0  0
 39 46  1  0  0  0  0
 46 47  1  0  0  0  0
 46 48  1  0  0  0  0
 46 49  1  0  0  0  0
 47 50  1  0  0  0  0
 47 51  1  0  0  0  0
 51 52  1  0  0  0  0
 51 53  1  0  0  0  0
 51 54  1  0  0  0  0
 50 55  1  0  0  0  0
 52 55  1  0  0  0  0
 52 56  1  0  0  0  0
 52 57  1  0  0  0  0
 50 58  1  0  0  0  0
 50 59  1  0  0  0  0
 55 60  1  0  0  0  0
 60 61  1  0  0  0  0
 60 62  1  0  0  0  0
 60 63  1  0  0  0  0
 61 64  1  0  0  0  0
 61 65  1  0  0  0  0
 61 66  1  0  0  0  0
 64 67  1  0  0  0  0
 64 68  1  0  0  0  0
 64 69  1  0  0  0  0
 67 70  1  0  0  0  0
 67 71  1  0  0  0  0
 67 72  1  0  0  0  0
 55 73  1  0  0  0  0
 74 75  2  0  0  0  0
 74 76  1  0  0  0  0
 74 77  1  0  0  0  0
 75 78  1  0  0  0  0
 75 79  1  0  0  0  0
 78 80  4  0  0  0  0
 80 81  4  0  0  0  0
 81 82  4  0  0  0  0
 78 83  4  0  0  0  0
 82 84  4  0  0  0  0
 83 84  4  0  0  0  0
 83 85  1  0  0  0  0
 84 86  1  0  0  0  0
 81 87  1  0  0  0  0
 80 88  1  0  0  0  0
 82 89  1  0  0  0  0
 89 90  1  0  0  0  0
 89 91  1  0  0  0  0
 89 92  1  0  0  0  0
 90 93  1  0  0  0  0
 90 94  1  0  0  0  0
 94 95  1  0  0  0  0
 94 96  1  0  0  0  0
 94 97  1  0  0  0  0
 93 98  1  0  0  0  0
 95 98  1  0  0  0  0
 95 99  1  0  0  0  0
 95100  1  0  0  0  0
 93101  1  0  0  0  0
 93102  1  0  0  0  0
 98103  1  0  0  0  0
103104  1  0  0  0  0
103105  1  0  0  0  0
103106  1  0  0  0  0
104107  1  0  0  0  0
104108  1  0  0  0  0
104109  1  0  0  0  0
107110  1  0  0  0  0
107111  1  0  0  0  0
107112  1  0  0  0  0
110113  1  0  0  0  0
110114  1  0  0  0  0
110115  1  0  0  0  0
 98116  1  0  0  0  0
M  END
