 xtb: 6.7.1 (edcfbbe)
          10212513343D

116116  0     0  0            999 V2000
    3.0809   -0.7100   10.6273 C   0  0  0  0  0  0  0  0  0  0  0  0
    1.7740   -0.0841    6.2934 C   0  0  0  0  0  0  0  0  0  0  0  0
    3.2019   -1.5750   11.6397 F   0  0  0  0  0  0  0  0  0  0  0  0
    3.2185    0.5116   11.1469 F   0  0  0  0  0  0  0  0  0  0  0  0
    1.8425   -0.8267   10.1530 F   0  0  0  0  0  0  0  0  0  0  0  0
    0.7539   -0.5961    6.9743 F   0  0  0  0  0  0  0  0  0  0  0  0
    1.3402    1.0195    5.6753 F   0  0  0  0  0  0  0  0  0  0  0  0
    2.1223   -0.9605    5.3535 F   0  0  0  0  0  0  0  0  0  0  0  0
    4.3852   -1.0462    9.2862 S   0  0  0  0  0  0  0  0  0  0  0  0
    3.2269    0.3179    7.4087 S   0  0  0  0  0  0  0  0  0  0  0  0
    3.5506   -1.1258    7.9555 N   0  0  0  0  0  0  0  0  0  0  0  0
    5.2249    0.1275    9.3358 O   0  0  0  0  0  0  0  0  0  0  0  0
    4.9880   -2.2827    9.6523 O   0  0  0  0  0  0  0  0  0  0  0  0
    2.7396    1.2279    8.4047 O   0  0  0  0  0  0  0  0  0  0  0  0
    4.2116    0.8747    6.5201 O   0  0  0  0  0  0  0  0  0  0  0  0
    1.7256    6.6692    6.7171 C   0  0  0  0  0  0  0  0  0  0  0  0
    2.5176   11.3224    7.4255 C   0  0  0  0  0  0  0  0  0  0  0  0
    1.0717    6.4939    7.8533 F   0  0  0  0  0  0  0  0  0  0  0  0
    0.9155    7.1896    5.8021 F   0  0  0  0  0  0  0  0  0  0  0  0
    2.0691    5.4492    6.2773 F   0  0  0  0  0  0  0  0  0  0  0  0
    3.5339   11.8536    6.7256 F   0  0  0  0  0  0  0  0  0  0  0  0
    1.6057   12.2779    7.5833 F   0  0  0  0  0  0  0  0  0  0  0  0
    3.0101   11.0448    8.6398 F   0  0  0  0  0  0  0  0  0  0  0  0
    3.3160    7.6825    6.8414 S   0  0  0  0  0  0  0  0  0  0  0  0
    1.7799    9.7967    6.5653 S   0  0  0  0  0  0  0  0  0  0  0  0
    3.0673    9.0210    6.0526 N   0  0  0  0  0  0  0  0  0  0  0  0
    3.6606    7.8939    8.2249 O   0  0  0  0  0  0  0  0  0  0  0  0
    4.2902    6.8676    6.1599 O   0  0  0  0  0  0  0  0  0  0  0  0
    1.0198   10.3767    5.5146 O   0  0  0  0  0  0  0  0  0  0  0  0
    1.1281    9.0857    7.6187 O   0  0  0  0  0  0  0  0  0  0  0  0
    1.2043   10.9477   11.2620 C   0  0  0  0  0  0  0  0  0  0  0  0
    0.9578    9.6666   11.0184 C   0  0  0  0  0  0  0  0  0  0  0  0
    0.4219   11.6857   11.2216 H   0  0  0  0  0  0  0  0  0  0  0  0
    2.1858   11.3149   11.5094 H   0  0  0  0  0  0  0  0  0  0  0  0
    1.9234    8.5764   11.0321 C   0  0  0  0  0  0  0  0  0  0  0  0
   -0.0535    9.3612   10.7852 H   0  0  0  0  0  0  0  0  0  0  0  0
    1.4582    7.2615   11.0038 C   0  0  0  0  0  0  0  0  0  0  0  0
    2.3300    6.1938   10.9666 C   0  0  0  0  0  0  0  0  0  0  0  0
    3.7008    6.4107   10.9261 C   0  0  0  0  0  0  0  0  0  0  0  0
    3.3011    8.7823   11.0565 C   0  0  0  0  0  0  0  0  0  0  0  0
    4.1717    7.7143   10.9968 C   0  0  0  0  0  0  0  0  0  0  0  0
    3.6932    9.7870   11.0769 H   0  0  0  0  0  0  0  0  0  0  0  0
    5.2403    7.8969   10.9891 H   0  0  0  0  0  0  0  0  0  0  0  0
    1.9571    5.1823   10.9360 H   0  0  0  0  0  0  0  0  0  0  0  0
    0.3948    7.0770   10.9927 H   0  0  0  0  0  0  0  0  0  0  0  0
    4.6664    5.2650   10.7705 C   0  0  0  0  0  0  0  0  0  0  0  0
    4.1070    4.1567   10.0112 N   0  0  0  0  0  0  0  0  0  0  0  0
    4.9183    4.8658   11.7611 H   0  0  0  0  0  0  0  0  0  0  0  0
    5.5961    5.6652   10.3251 H   0  0  0  0  0  0  0  0  0  0  0  0
    5.0155    3.1135    9.7123 C   0  0  0  0  0  0  0  0  0  0  0  0
    3.4907    4.4771    8.7294 C   0  0  0  0  0  0  0  0  0  0  0  0
    4.4826    4.0138    7.6360 C   0  0  0  0  0  0  0  0  0  0  0  0
    3.2886    5.5455    8.6693 H   0  0  0  0  0  0  0  0  0  0  0  0
    2.5603    3.9150    8.6409 H   0  0  0  0  0  0  0  0  0  0  0  0
    5.6617    3.5435    8.3976 N   0  0  0  0  0  0  0  0  0  0  0  0
    4.7400    4.8190    6.9472 H   0  0  0  0  0  0  0  0  0  0  0  0
    4.0787    3.1644    7.0851 H   0  0  0  0  0  0  0  0  0  0  0  0
    4.4880    2.1780    9.5049 H   0  0  0  0  0  0  0  0  0  0  0  0
    5.7628    2.9579   10.4887 H   0  0  0  0  0  0  0  0  0  0  0  0
    6.4902    2.5462    7.6989 C   0  0  0  0  0  0  0  0  0  0  0  0
    7.5765    1.9682    8.5963 C   0  0  0  0  0  0  0  0  0  0  0  0
    6.9293    3.0367    6.8251 H   0  0  0  0  0  0  0  0  0  0  0  0
    5.8368    1.7381    7.3621 H   0  0  0  0  0  0  0  0  0  0  0  0
    8.5414    1.1096    7.7801 C   0  0  0  0  0  0  0  0  0  0  0  0
    7.1020    1.3312    9.3417 H   0  0  0  0  0  0  0  0  0  0  0  0
    8.1343    2.7669    9.0957 H   0  0  0  0  0  0  0  0  0  0  0  0
    9.4919    0.3361    8.6843 C   0  0  0  0  0  0  0  0  0  0  0  0
    9.1101    1.7435    7.0940 H   0  0  0  0  0  0  0  0  0  0  0  0
    7.9568    0.4055    7.1889 H   0  0  0  0  0  0  0  0  0  0  0  0
   10.1742   -0.2694    8.0933 H   0  0  0  0  0  0  0  0  0  0  0  0
    8.9252   -0.3229    9.3361 H   0  0  0  0  0  0  0  0  0  0  0  0
   10.0793    1.0136    9.3018 H   0  0  0  0  0  0  0  0  0  0  0  0
    6.2490    4.3576    8.6054 H   0  0  0  0  0  0  0  0  0  0  0  0
   10.6910    4.2942    7.4422 C   0  0  0  0  0  0  0  0  0  0  0  0
    9.7986    5.0053    8.1190 C   0  0  0  0  0  0  0  0  0  0  0  0
   11.2714    3.5238    7.9185 H   0  0  0  0  0  0  0  0  0  0  0  0
   10.8630    4.4355    6.3889 H   0  0  0  0  0  0  0  0  0  0  0  0
    8.9491    6.0555    7.5661 C   0  0  0  0  0  0  0  0  0  0  0  0
    9.6419    4.7971    9.1710 H   0  0  0  0  0  0  0  0  0  0  0  0
    9.2679    6.7475    6.3986 C   0  0  0  0  0  0  0  0  0  0  0  0
    8.4456    7.7572    5.9319 C   0  0  0  0  0  0  0  0  0  0  0  0
    7.2574    8.0857    6.5823 C   0  0  0  0  0  0  0  0  0  0  0  0
    7.7591    6.3912    8.2163 C   0  0  0  0  0  0  0  0  0  0  0  0
    6.9049    7.3596    7.7211 C   0  0  0  0  0  0  0  0  0  0  0  0
    7.5087    5.8743    9.1355 H   0  0  0  0  0  0  0  0  0  0  0  0
    5.9461    7.5327    8.1859 H   0  0  0  0  0  0  0  0  0  0  0  0
    8.7170    8.2826    5.0264 H   0  0  0  0  0  0  0  0  0  0  0  0
   10.1738    6.5089    5.8641 H   0  0  0  0  0  0  0  0  0  0  0  0
    6.4008    9.2236    6.0848 C   0  0  0  0  0  0  0  0  0  0  0  0
    6.4670   10.4322    6.9033 N   0  0  0  0  0  0  0  0  0  0  0  0
    5.3546    8.9174    6.0352 H   0  0  0  0  0  0  0  0  0  0  0  0
    6.7091    9.5077    5.0761 H   0  0  0  0  0  0  0  0  0  0  0  0
    7.7382   10.9798    7.1013 C   0  0  0  0  0  0  0  0  0  0  0  0
    5.8766   10.3939    8.2242 C   0  0  0  0  0  0  0  0  0  0  0  0
    7.0539   10.1236    9.2037 C   0  0  0  0  0  0  0  0  0  0  0  0
    5.0878    9.6453    8.2895 H   0  0  0  0  0  0  0  0  0  0  0  0
    5.4438   11.3721    8.4378 H   0  0  0  0  0  0  0  0  0  0  0  0
    8.2751   10.2605    8.3702 N   0  0  0  0  0  0  0  0  0  0  0  0
    7.0007    9.1270    9.6359 H   0  0  0  0  0  0  0  0  0  0  0  0
    7.0768   10.8627   10.0035 H   0  0  0  0  0  0  0  0  0  0  0  0
    7.6790   12.0397    7.3687 H   0  0  0  0  0  0  0  0  0  0  0  0
    8.4133   10.8297    6.2610 H   0  0  0  0  0  0  0  0  0  0  0  0
    9.4173   10.8978    9.0437 C   0  0  0  0  0  0  0  0  0  0  0  0
   10.6549   10.9912    8.1536 C   0  0  0  0  0  0  0  0  0  0  0  0
    9.6507   10.3208    9.9411 H   0  0  0  0  0  0  0  0  0  0  0  0
    9.1104   11.9010    9.3499 H   0  0  0  0  0  0  0  0  0  0  0  0
   11.1274    9.6521    7.5813 C   0  0  0  0  0  0  0  0  0  0  0  0
   11.4538   11.4159    8.7634 H   0  0  0  0  0  0  0  0  0  0  0  0
   10.4695   11.6873    7.3343 H   0  0  0  0  0  0  0  0  0  0  0  0
   11.4145    8.6014    8.6483 C   0  0  0  0  0  0  0  0  0  0  0  0
   12.0449    9.8415    7.0227 H   0  0  0  0  0  0  0  0  0  0  0  0
   10.3992    9.2583    6.8685 H   0  0  0  0  0  0  0  0  0  0  0  0
   12.1024    8.9927    9.3936 H   0  0  0  0  0  0  0  0  0  0  0  0
   11.8718    7.7280    8.1922 H   0  0  0  0  0  0  0  0  0  0  0  0
   10.5086    8.2684    9.1505 H   0  0  0  0  0  0  0  0  0  0  0  0
    8.5425    9.3222    8.0420 H   0  0  0  0  0  0  0  0  0  0  0  0
  1  3  1  0  0  0  0
  1  4  1  0  0  0  0
  1  5  1  0  0  0  0
  2  6  1  0  0  0  0
  2  7  1  0  0  0  0
  2  8  1  0  0  0  0
  1  9  1  0  0  0  0
  2 10  1  0  0  0  0
  9 11  1  0  0  0  0
 10 11  1  0  0  0  0
  9 12  2  0  0  0  0
  9 13  2  0  0  0  0
 10 14  2  0  0  0  0
 10 15  2  0  0  0  0
 16 18  1  0  0  0  0
 16 19  1  0  0  0  0
 16 20  1  0  0  0  0
 17 21  1  0  0  0  0
 17 22  1  0  0  0  0
 17 23  1  0  0  0  0
 16 24  1  0  0  0  0
 17 25  1  0  0  0  0
 24 26  1  0  0  0  0
 25 26  1  0  0  0  0
 24 27  2  0  0  0  0
 24 28  2  0  0  0  0
 25 29  2  0  0  0  0
 25 30  2  0  0  0  0
 31 32  2  0  0  0  0
 31 33  1  0  0  0  0
 31 34  1  0  0  0  0
 32 35  1  0  0  0  0
 32 36  1  0  0  0  0
 35 37  4  0  0  0  0
 37 38  4  0  0  0  0
 38 39  4  0  0  0  0
 35 40  4  0  0  0  0
 39 41  4  0  0  0  0
 40 41  4  0  0  0  0
 40 42  1  0  0  0  0
 41 43  1  0  0  0  0
 38 44  1  0  0  0  0
 37 45  1  0  0  0  0
 39 46  1  0  0  0  0
 46 47  1  0  0  0  0
 46 48  1  0  0  0  0
 46 49  1  0  0  0  0
 47 50  1  0  0  0  0
 47 51  1  0  0  0  0
 51 52  1  0  0  0  0
 51 53  1  0  0  0  0
 51 54  1  0  0  0  0
 50 55  1  0  0  0  0
 52 55  1  0  0  0  0
 52 56  1  0  0  0  0
 52 57  1  0  0  0  0
 50 58  1  0  0  0  0
 50 59  1  0  0  0  0
 55 60  1  0  0  0  0
 60 61  1  0  0  0  0
 60 62  1  0  0  0  0
 60 63  1  0  0  0  0
 61 64  1  0  0  0  0
 61 65  1  0  0  0  0
 61 66  1  0  0  0  0
 64 67  1  0  0  0  0
 64 68  1  0  0  0  0
 64 69  1  0  0  0  0
 67 70  1  0  0  0  0
 67 71  1  0  0  0  0
 67 72  1  0  0  0  0
 55 73  1  0  0  0  0
 74 75  2  0  0  0  0
 74 76  1  0  0  0  0
 74 77  1  0  0  0  0
 75 78  1  0  0  0  0
 75 79  1  0  0  0  0
 78 80  4  0  0  0  0
 80 81  4  0  0  0  0
 81 82  4  0  0  0  0
 78 83  4  0  0  0  0
 82 84  4  0  0  0  0
 83 84  4  0  0  0  0
 83 85  1  0  0  0  0
 84 86  1  0  0  0  0
 81 87  1  0  0  0  0
 80 88  1  0  0  0  0
 82 89  1  0  0  0  0
 89 90  1  0  0  0  0
 89 91  1  0  0  0  0
 89 92  1  0  0  0  0
 90 93  1  0  0  0  0
 90 94  1  0  0  0  0
 94 95  1  0  0  0  0
 94 96  1  0  0  0  0
 94 97  1  0  0  0  0
 93 98  1  0  0  0  0
 95 98  1  0  0  0  0
 95 99  1  0  0  0  0
 95100  1  0  0  0  0
 93101  1  0  0  0  0
 93102  1  0  0  0  0
 98103  1  0  0  0  0
103104  1  0  0  0  0
103105  1  0  0  0  0
103106  1  0  0  0  0
104107  1  0  0  0  0
104108  1  0  0  0  0
104109  1  0  0  0  0
107110  1  0  0  0  0
107111  1  0  0  0  0
107112  1  0  0  0  0
110113  1  0  0  0  0
110114  1  0  0  0  0
110115  1  0  0  0  0
 98116  1  0  0  0  0
M  END
