 xtb: 6.7.1 (edcfbbe)
          10212513353D

116116  0     0  0            999 V2000
    1.0697    3.7118    6.5194 C   0  0  0  0  0  0  0  0  0  0  0  0
   -0.4376    6.6031    2.9863 C   0  0  0  0  0  0  0  0  0  0  0  0
    1.2658    2.4035    6.3968 F   0  0  0  0  0  0  0  0  0  0  0  0
    2.2543    4.3128    6.3332 F   0  0  0  0  0  0  0  0  0  0  0  0
    0.7436    3.9448    7.8081 F   0  0  0  0  0  0  0  0  0  0  0  0
   -0.4042    6.9449    1.6895 F   0  0  0  0  0  0  0  0  0  0  0  0
   -1.6074    6.0076    3.2020 F   0  0  0  0  0  0  0  0  0  0  0  0
   -0.4186    7.7515    3.6689 F   0  0  0  0  0  0  0  0  0  0  0  0
   -0.2935    4.3488    5.3591 S   0  0  0  0  0  0  0  0  0  0  0  0
    1.0472    5.4805    3.3977 S   0  0  0  0  0  0  0  0  0  0  0  0
    0.3746    4.1729    3.9471 N   0  0  0  0  0  0  0  0  0  0  0  0
   -1.3598    3.4406    5.6090 O   0  0  0  0  0  0  0  0  0  0  0  0
   -0.4673    5.7153    5.7561 O   0  0  0  0  0  0  0  0  0  0  0  0
    1.8049    6.2308    4.3632 O   0  0  0  0  0  0  0  0  0  0  0  0
    1.6712    5.2758    2.1305 O   0  0  0  0  0  0  0  0  0  0  0  0
   10.1706    6.0430    3.2294 C   0  0  0  0  0  0  0  0  0  0  0  0
    8.7694    4.7759    6.9193 C   0  0  0  0  0  0  0  0  0  0  0  0
   10.0628    7.3773    3.2793 F   0  0  0  0  0  0  0  0  0  0  0  0
   10.7703    5.6307    4.3411 F   0  0  0  0  0  0  0  0  0  0  0  0
   10.9957    5.7849    2.2076 F   0  0  0  0  0  0  0  0  0  0  0  0
    8.3200    3.5428    7.1311 F   0  0  0  0  0  0  0  0  0  0  0  0
   10.0882    4.7252    6.8014 F   0  0  0  0  0  0  0  0  0  0  0  0
    8.4939    5.4855    8.0333 F   0  0  0  0  0  0  0  0  0  0  0  0
    8.4975    5.1580    2.9484 S   0  0  0  0  0  0  0  0  0  0  0  0
    7.8466    5.5502    5.4637 S   0  0  0  0  0  0  0  0  0  0  0  0
    8.1804    4.5089    4.3379 N   0  0  0  0  0  0  0  0  0  0  0  0
    7.6242    6.2562    2.6027 O   0  0  0  0  0  0  0  0  0  0  0  0
    8.7939    4.2284    1.9180 O   0  0  0  0  0  0  0  0  0  0  0  0
    8.4290    6.8418    5.2384 O   0  0  0  0  0  0  0  0  0  0  0  0
    6.5091    5.5621    5.9823 O   0  0  0  0  0  0  0  0  0  0  0  0
    2.9815   11.2488    4.8880 C   0  0  0  0  0  0  0  0  0  0  0  0
    2.1517   10.2529    5.1768 C   0  0  0  0  0  0  0  0  0  0  0  0
    3.0216   11.6712    3.8991 H   0  0  0  0  0  0  0  0  0  0  0  0
    3.6438   11.6907    5.6153 H   0  0  0  0  0  0  0  0  0  0  0  0
    2.0251    9.5824    6.4649 C   0  0  0  0  0  0  0  0  0  0  0  0
    1.5222    9.8390    4.4016 H   0  0  0  0  0  0  0  0  0  0  0  0
    1.3261    8.3760    6.5258 C   0  0  0  0  0  0  0  0  0  0  0  0
    1.2555    7.6500    7.6990 C   0  0  0  0  0  0  0  0  0  0  0  0
    1.8751    8.1065    8.8556 C   0  0  0  0  0  0  0  0  0  0  0  0
    2.5738   10.0845    7.6480 C   0  0  0  0  0  0  0  0  0  0  0  0
    2.5067    9.3540    8.8223 C   0  0  0  0  0  0  0  0  0  0  0  0
    3.0442   11.0567    7.6582 H   0  0  0  0  0  0  0  0  0  0  0  0
    2.9049    9.7813    9.7359 H   0  0  0  0  0  0  0  0  0  0  0  0
    0.7033    6.7237    7.6890 H   0  0  0  0  0  0  0  0  0  0  0  0
    0.8562    7.9668    5.6493 H   0  0  0  0  0  0  0  0  0  0  0  0
    1.9488    7.2302   10.0796 C   0  0  0  0  0  0  0  0  0  0  0  0
    3.1892    6.4516   10.1736 N   0  0  0  0  0  0  0  0  0  0  0  0
    1.1294    6.5108   10.0734 H   0  0  0  0  0  0  0  0  0  0  0  0
    1.8795    7.8236   10.9952 H   0  0  0  0  0  0  0  0  0  0  0  0
    4.3792    7.1947   10.2952 C   0  0  0  0  0  0  0  0  0  0  0  0
    3.4708    5.5567    9.0643 C   0  0  0  0  0  0  0  0  0  0  0  0
    4.3194    6.3754    8.0606 C   0  0  0  0  0  0  0  0  0  0  0  0
    2.5505    5.1934    8.6240 H   0  0  0  0  0  0  0  0  0  0  0  0
    4.0404    4.7065    9.4456 H   0  0  0  0  0  0  0  0  0  0  0  0
    4.8277    7.5225    8.8659 N   0  0  0  0  0  0  0  0  0  0  0  0
    3.7031    6.7341    7.2377 H   0  0  0  0  0  0  0  0  0  0  0  0
    5.1456    5.8054    7.6371 H   0  0  0  0  0  0  0  0  0  0  0  0
    5.1698    6.5701   10.7246 H   0  0  0  0  0  0  0  0  0  0  0  0
    4.2625    8.1061   10.8815 H   0  0  0  0  0  0  0  0  0  0  0  0
    6.2725    7.8052    8.7922 C   0  0  0  0  0  0  0  0  0  0  0  0
    6.6988    8.4322    7.4732 C   0  0  0  0  0  0  0  0  0  0  0  0
    6.8101    6.8695    8.9457 H   0  0  0  0  0  0  0  0  0  0  0  0
    6.5109    8.4883    9.6137 H   0  0  0  0  0  0  0  0  0  0  0  0
    6.0613    9.7993    7.2121 C   0  0  0  0  0  0  0  0  0  0  0  0
    6.4884    7.7517    6.6501 H   0  0  0  0  0  0  0  0  0  0  0  0
    7.7828    8.5437    7.5113 H   0  0  0  0  0  0  0  0  0  0  0  0
    6.9448   10.6325    6.2892 C   0  0  0  0  0  0  0  0  0  0  0  0
    5.9312   10.3398    8.1549 H   0  0  0  0  0  0  0  0  0  0  0  0
    5.0786    9.6727    6.7531 H   0  0  0  0  0  0  0  0  0  0  0  0
    7.8542   10.9307    6.8049 H   0  0  0  0  0  0  0  0  0  0  0  0
    6.4272   11.5314    5.9623 H   0  0  0  0  0  0  0  0  0  0  0  0
    7.2266   10.0472    5.4189 H   0  0  0  0  0  0  0  0  0  0  0  0
    4.2912    8.3622    8.5809 H   0  0  0  0  0  0  0  0  0  0  0  0
    7.1456    1.6414    3.0865 C   0  0  0  0  0  0  0  0  0  0  0  0
    6.5874    2.2939    2.0760 C   0  0  0  0  0  0  0  0  0  0  0  0
    7.6441    0.6985    2.9376 H   0  0  0  0  0  0  0  0  0  0  0  0
    7.1553    2.0364    4.0873 H   0  0  0  0  0  0  0  0  0  0  0  0
    5.9051    3.5784    2.1694 C   0  0  0  0  0  0  0  0  0  0  0  0
    6.6480    1.8802    1.0777 H   0  0  0  0  0  0  0  0  0  0  0  0
    5.7306    4.3441    1.0169 C   0  0  0  0  0  0  0  0  0  0  0  0
    5.0769    5.5584    1.0622 C   0  0  0  0  0  0  0  0  0  0  0  0
    4.5685    6.0520    2.2600 C   0  0  0  0  0  0  0  0  0  0  0  0
    5.3851    4.0707    3.3643 C   0  0  0  0  0  0  0  0  0  0  0  0
    4.7325    5.2865    3.4074 C   0  0  0  0  0  0  0  0  0  0  0  0
    5.4666    3.4895    4.2685 H   0  0  0  0  0  0  0  0  0  0  0  0
    4.3048    5.6228    4.3393 H   0  0  0  0  0  0  0  0  0  0  0  0
    4.9216    6.1000    0.1375 H   0  0  0  0  0  0  0  0  0  0  0  0
    6.1140    3.9745    0.0763 H   0  0  0  0  0  0  0  0  0  0  0  0
    3.8146    7.3556    2.3263 C   0  0  0  0  0  0  0  0  0  0  0  0
    4.6230    8.5768    2.3044 N   0  0  0  0  0  0  0  0  0  0  0  0
    3.2282    7.3757    3.2441 H   0  0  0  0  0  0  0  0  0  0  0  0
    3.1144    7.4172    1.4914 H   0  0  0  0  0  0  0  0  0  0  0  0
    5.3333    8.8319    1.1029 C   0  0  0  0  0  0  0  0  0  0  0  0
    5.5850    8.7132    3.3987 C   0  0  0  0  0  0  0  0  0  0  0  0
    6.9416    9.0114    2.7372 C   0  0  0  0  0  0  0  0  0  0  0  0
    5.6445    7.7837    3.9699 H   0  0  0  0  0  0  0  0  0  0  0  0
    5.2714    9.5256    4.0593 H   0  0  0  0  0  0  0  0  0  0  0  0
    6.7701    8.4763    1.3698 N   0  0  0  0  0  0  0  0  0  0  0  0
    7.7582    8.5095    3.2524 H   0  0  0  0  0  0  0  0  0  0  0  0
    7.1270   10.0863    2.6697 H   0  0  0  0  0  0  0  0  0  0  0  0
    5.3306    9.9094    0.8759 H   0  0  0  0  0  0  0  0  0  0  0  0
    4.9280    8.2807    0.2553 H   0  0  0  0  0  0  0  0  0  0  0  0
    7.6846    8.9831    0.3302 C   0  0  0  0  0  0  0  0  0  0  0  0
    8.9814    8.1912    0.2062 C   0  0  0  0  0  0  0  0  0  0  0  0
    7.9053   10.0304    0.5564 H   0  0  0  0  0  0  0  0  0  0  0  0
    7.1553    8.9477   -0.6248 H   0  0  0  0  0  0  0  0  0  0  0  0
    8.7989    6.7769   -0.3516 C   0  0  0  0  0  0  0  0  0  0  0  0
    9.4641    8.1383    1.1795 H   0  0  0  0  0  0  0  0  0  0  0  0
    9.6407    8.7506   -0.4614 H   0  0  0  0  0  0  0  0  0  0  0  0
    8.2192    6.7512   -1.7626 C   0  0  0  0  0  0  0  0  0  0  0  0
    8.1793    6.1764    0.3142 H   0  0  0  0  0  0  0  0  0  0  0  0
    9.7805    6.3017   -0.3674 H   0  0  0  0  0  0  0  0  0  0  0  0
    8.7876    7.3998   -2.4263 H   0  0  0  0  0  0  0  0  0  0  0  0
    7.1770    7.0621   -1.7811 H   0  0  0  0  0  0  0  0  0  0  0  0
    8.2652    5.7396   -2.1553 H   0  0  0  0  0  0  0  0  0  0  0  0
    6.8787    7.4444    1.4859 H   0  0  0  0  0  0  0  0  0  0  0  0
  1  3  1  0  0  0  0
  1  4  1  0  0  0  0
  1  5  1  0  0  0  0
  2  6  1  0  0  0  0
  2  7  1  0  0  0  0
  2  8  1  0  0  0  0
  1  9  1  0  0  0  0
  2 10  1  0  0  0  0
  9 11  1  0  0  0  0
 10 11  1  0  0  0  0
  9 12  2  0  0  0  0
  9 13  2  0  0  0  0
 10 14  2  0  0  0  0
 10 15  2  0  0  0  0
 16 18  1  0  0  0  0
 16 19  1  0  0  0  0
 16 20  1  0  0  0  0
 17 21  1  0  0  0  0
 17 22  1  0  0  0  0
 17 23  1  0  0  0  0
 16 24  1  0  0  0  0
 17 25  1  0  0  0  0
 24 26  1  0  0  0  0
 25 26  1  0  0  0  0
 24 27  2  0  0  0  0
 24 28  2  0  0  0  0
 25 29  2  0  0  0  0
 25 30  2  0  0  0  0
 31 32  2  0  0  0  0
 31 33  1  0  0  0  0
 31 34  1  0  0  0  0
 32 35  1  0  0  0  0
 32 36  1  0  0  0  0
 35 37  4  0  0  0  0
 37 38  4  0  0  0  0
 38 39  4  0  0  0  0
 35 40  4  0  0  0  0
 39 41  4  0  0  0  0
 40 41  4  0  0  0  0
 40 42  1  0  0  0  0
 41 43  1  0  0  0  0
 38 44  1  0  0  0  0
 37 45  1  0  0  0  0
 39 46  1  0  0  0  0
 46 47  1  0  0  0  0
 46 48  1  0  0  0  0
 46 49  1  0  0  0  0
 47 50  1  0  0  0  0
 47 51  1  0  0  0  0
 51 52  1  0  0  0  0
 51 53  1  0  0  0  0
 51 54  1  0  0  0  0
 50 55  1  0  0  0  0
 52 55  1  0  0  0  0
 52 56  1  0  0  0  0
 52 57  1  0  0  0  0
 50 58  1  0  0  0  0
 50 59  1  0  0  0  0
 55 60  1  0  0  0  0
 60 61  1  0  0  0  0
 60 62  1  0  0  0  0
 60 63  1  0  0  0  0
 61 64  1  0  0  0  0
 61 65  1  0  0  0  0
 61 66  1  0  0  0  0
 64 67  1  0  0  0  0
 64 68  1  0  0  0  0
 64 69  1  0  0  0  0
 67 70  1  0  0  0  0
 67 71  1  0  0  0  0
 67 72  1  0  0  0  0
 55 73  1  0  0  0  0
 74 75  2  0  0  0  0
 74 76  1  0  0  0  0
 74 77  1  0  0  0  0
 75 78  1  0  0  0  0
 75 79  1  0  0  0  0
 78 80  4  0  0  0  0
 80 81  4  0  0  0  0
 81 82  4  0  0  0  0
 78 83  4  0  0  0  0
 82 84  4  0  0  0  0
 83 84  4  0  0  0  0
 83 85  1  0  0  0  0
 84 86  1  0  0  0  0
 81 87  1  0  0  0  0
 80 88  1  0  0  0  0
 82 89  1  0  0  0  0
 89 90  1  0  0  0  0
 89 91  1  0  0  0  0
 89 92  1  0  0  0  0
 90 93  1  0  0  0  0
 90 94  1  0  0  0  0
 94 95  1  0  0  0  0
 94 96  1  0  0  0  0
 94 97  1  0  0  0  0
 93 98  1  0  0  0  0
 95 98  1  0  0  0  0
 95 99  1  0  0  0  0
 95100  1  0  0  0  0
 93101  1  0  0  0  0
 93102  1  0  0  0  0
 98103  1  0  0  0  0
103104  1  0  0  0  0
103105  1  0  0  0  0
103106  1  0  0  0  0
104107  1  0  0  0  0
104108  1  0  0  0  0
104109  1  0  0  0  0
107110  1  0  0  0  0
107111  1  0  0  0  0
107112  1  0  0  0  0
110113  1  0  0  0  0
110114  1  0  0  0  0
110115  1  0  0  0  0
 98116  1  0  0  0  0
M  END
