 xtb: 6.7.1 (edcfbbe)
          10212513353D

116116  0     0  0            999 V2000
    5.1789    1.9087    7.8737 C   0  0  0  0  0  0  0  0  0  0  0  0
    1.6362    4.9828    6.8650 C   0  0  0  0  0  0  0  0  0  0  0  0
    5.4476    2.4228    9.0513 F   0  0  0  0  0  0  0  0  0  0  0  0
    4.0896    1.1261    7.9662 F   0  0  0  0  0  0  0  0  0  0  0  0
    6.1705    1.0964    7.5169 F   0  0  0  0  0  0  0  0  0  0  0  0
    1.3926    4.9719    5.5442 F   0  0  0  0  0  0  0  0  0  0  0  0
    0.4864    5.2574    7.4772 F   0  0  0  0  0  0  0  0  0  0  0  0
    2.4783    5.9788    7.1172 F   0  0  0  0  0  0  0  0  0  0  0  0
    4.8843    3.1710    6.5074 S   0  0  0  0  0  0  0  0  0  0  0  0
    2.3214    3.2952    7.3532 S   0  0  0  0  0  0  0  0  0  0  0  0
    3.3335    3.0032    6.1662 N   0  0  0  0  0  0  0  0  0  0  0  0
    5.2267    4.4841    6.9378 O   0  0  0  0  0  0  0  0  0  0  0  0
    5.5489    2.6290    5.3568 O   0  0  0  0  0  0  0  0  0  0  0  0
    1.1806    2.4444    7.2330 O   0  0  0  0  0  0  0  0  0  0  0  0
    2.9759    3.4616    8.6032 O   0  0  0  0  0  0  0  0  0  0  0  0
   11.7762    5.1281    8.4834 C   0  0  0  0  0  0  0  0  0  0  0  0
    8.2861    3.4855    5.6790 C   0  0  0  0  0  0  0  0  0  0  0  0
   12.1978    6.0397    9.3761 F   0  0  0  0  0  0  0  0  0  0  0  0
   12.2507    3.9573    8.8664 F   0  0  0  0  0  0  0  0  0  0  0  0
   12.3419    5.4700    7.3202 F   0  0  0  0  0  0  0  0  0  0  0  0
    7.5154    4.4498    5.1508 F   0  0  0  0  0  0  0  0  0  0  0  0
    8.2792    2.4580    4.8321 F   0  0  0  0  0  0  0  0  0  0  0  0
    7.7419    3.0994    6.8267 F   0  0  0  0  0  0  0  0  0  0  0  0
    9.8804    5.1992    8.3769 S   0  0  0  0  0  0  0  0  0  0  0  0
    9.9847    4.2629    5.9051 S   0  0  0  0  0  0  0  0  0  0  0  0
    9.6187    5.4862    6.8368 N   0  0  0  0  0  0  0  0  0  0  0  0
    9.3816    3.9636    8.8645 O   0  0  0  0  0  0  0  0  0  0  0  0
    9.5468    6.3911    9.1116 O   0  0  0  0  0  0  0  0  0  0  0  0
   10.2938    4.7139    4.5800 O   0  0  0  0  0  0  0  0  0  0  0  0
   10.8560    3.3200    6.5171 O   0  0  0  0  0  0  0  0  0  0  0  0
   11.3016    6.5272    1.9779 C   0  0  0  0  0  0  0  0  0  0  0  0
   10.6460    7.6737    1.8403 C   0  0  0  0  0  0  0  0  0  0  0  0
   12.1677    6.3106    1.3754 H   0  0  0  0  0  0  0  0  0  0  0  0
   11.0234    5.7828    2.7049 H   0  0  0  0  0  0  0  0  0  0  0  0
    9.4718    8.0670    2.6101 C   0  0  0  0  0  0  0  0  0  0  0  0
   10.9896    8.4128    1.1251 H   0  0  0  0  0  0  0  0  0  0  0  0
    8.6931    7.1402    3.3063 C   0  0  0  0  0  0  0  0  0  0  0  0
    7.5753    7.5439    4.0105 C   0  0  0  0  0  0  0  0  0  0  0  0
    7.2090    8.8890    4.0625 C   0  0  0  0  0  0  0  0  0  0  0  0
    9.0897    9.4099    2.6481 C   0  0  0  0  0  0  0  0  0  0  0  0
    7.9864    9.8160    3.3745 C   0  0  0  0  0  0  0  0  0  0  0  0
    9.6707   10.1433    2.1071 H   0  0  0  0  0  0  0  0  0  0  0  0
    7.7097   10.8619    3.3879 H   0  0  0  0  0  0  0  0  0  0  0  0
    6.9708    6.7983    4.5025 H   0  0  0  0  0  0  0  0  0  0  0  0
    8.9615    6.0980    3.3018 H   0  0  0  0  0  0  0  0  0  0  0  0
    5.9975    9.3322    4.8441 C   0  0  0  0  0  0  0  0  0  0  0  0
    6.1345    9.3132    6.3017 N   0  0  0  0  0  0  0  0  0  0  0  0
    5.1441    8.7029    4.5900 H   0  0  0  0  0  0  0  0  0  0  0  0
    5.7450   10.3624    4.5726 H   0  0  0  0  0  0  0  0  0  0  0  0
    7.3315    9.8890    6.7967 C   0  0  0  0  0  0  0  0  0  0  0  0
    6.0447    8.0260    6.9855 C   0  0  0  0  0  0  0  0  0  0  0  0
    7.4877    7.6308    7.3745 C   0  0  0  0  0  0  0  0  0  0  0  0
    5.5679    7.2719    6.3656 H   0  0  0  0  0  0  0  0  0  0  0  0
    5.4343    8.1544    7.8830 H   0  0  0  0  0  0  0  0  0  0  0  0
    8.3262    8.7524    6.8781 N   0  0  0  0  0  0  0  0  0  0  0  0
    7.8213    6.6929    6.9346 H   0  0  0  0  0  0  0  0  0  0  0  0
    7.6115    7.5425    8.4524 H   0  0  0  0  0  0  0  0  0  0  0  0
    7.1859   10.2487    7.8218 H   0  0  0  0  0  0  0  0  0  0  0  0
    7.7059   10.6931    6.1618 H   0  0  0  0  0  0  0  0  0  0  0  0
    9.5616    9.0558    7.6350 C   0  0  0  0  0  0  0  0  0  0  0  0
   10.7686    8.3777    7.0010 C   0  0  0  0  0  0  0  0  0  0  0  0
    9.4442    8.6851    8.6534 H   0  0  0  0  0  0  0  0  0  0  0  0
    9.6954   10.1414    7.6451 H   0  0  0  0  0  0  0  0  0  0  0  0
   11.2316    9.0234    5.6966 C   0  0  0  0  0  0  0  0  0  0  0  0
   10.5150    7.3324    6.8214 H   0  0  0  0  0  0  0  0  0  0  0  0
   11.5860    8.3955    7.7212 H   0  0  0  0  0  0  0  0  0  0  0  0
   12.2952    8.1563    5.0346 C   0  0  0  0  0  0  0  0  0  0  0  0
   11.6349   10.0202    5.8962 H   0  0  0  0  0  0  0  0  0  0  0  0
   10.3951    9.1375    5.0018 H   0  0  0  0  0  0  0  0  0  0  0  0
   13.1610    8.0573    5.6833 H   0  0  0  0  0  0  0  0  0  0  0  0
   12.6138    8.5901    4.0902 H   0  0  0  0  0  0  0  0  0  0  0  0
   11.8979    7.1624    4.8451 H   0  0  0  0  0  0  0  0  0  0  0  0
    8.5919    8.5092    5.9113 H   0  0  0  0  0  0  0  0  0  0  0  0
    2.0350   10.0129    4.7197 C   0  0  0  0  0  0  0  0  0  0  0  0
    1.8735    9.2043    3.6793 C   0  0  0  0  0  0  0  0  0  0  0  0
    1.4685   10.9236    4.8111 H   0  0  0  0  0  0  0  0  0  0  0  0
    2.7318    9.8075    5.5142 H   0  0  0  0  0  0  0  0  0  0  0  0
    2.5827    7.9506    3.4497 C   0  0  0  0  0  0  0  0  0  0  0  0
    1.1742    9.4788    2.8991 H   0  0  0  0  0  0  0  0  0  0  0  0
    2.5859    7.3840    2.1739 C   0  0  0  0  0  0  0  0  0  0  0  0
    3.2599    6.2065    1.9232 C   0  0  0  0  0  0  0  0  0  0  0  0
    3.9427    5.5505    2.9423 C   0  0  0  0  0  0  0  0  0  0  0  0
    3.2614    7.2811    4.4682 C   0  0  0  0  0  0  0  0  0  0  0  0
    3.9297    6.0958    4.2195 C   0  0  0  0  0  0  0  0  0  0  0  0
    3.2329    7.6711    5.4735 H   0  0  0  0  0  0  0  0  0  0  0  0
    4.4339    5.5777    5.0237 H   0  0  0  0  0  0  0  0  0  0  0  0
    3.2554    5.7760    0.9332 H   0  0  0  0  0  0  0  0  0  0  0  0
    2.0573    7.8810    1.3729 H   0  0  0  0  0  0  0  0  0  0  0  0
    4.6578    4.2586    2.6674 C   0  0  0  0  0  0  0  0  0  0  0  0
    3.7376    3.2866    2.0646 N   0  0  0  0  0  0  0  0  0  0  0  0
    5.1194    3.8832    3.5868 H   0  0  0  0  0  0  0  0  0  0  0  0
    5.4461    4.4336    1.9290 H   0  0  0  0  0  0  0  0  0  0  0  0
    2.5966    2.9685    2.8484 C   0  0  0  0  0  0  0  0  0  0  0  0
    4.3387    1.9936    1.8083 C   0  0  0  0  0  0  0  0  0  0  0  0
    4.1780    1.2073    3.1268 C   0  0  0  0  0  0  0  0  0  0  0  0
    5.3793    2.0940    1.5114 H   0  0  0  0  0  0  0  0  0  0  0  0
    3.7824    1.5103    0.9988 H   0  0  0  0  0  0  0  0  0  0  0  0
    2.9925    1.8247    3.7726 N   0  0  0  0  0  0  0  0  0  0  0  0
    5.0472    1.3479    3.7693 H   0  0  0  0  0  0  0  0  0  0  0  0
    4.0091    0.1469    2.9512 H   0  0  0  0  0  0  0  0  0  0  0  0
    1.8027    2.5884    2.1947 H   0  0  0  0  0  0  0  0  0  0  0  0
    2.2322    3.8170    3.4260 H   0  0  0  0  0  0  0  0  0  0  0  0
    1.8785    0.9027    4.0516 C   0  0  0  0  0  0  0  0  0  0  0  0
    2.2077   -0.0602    5.1872 C   0  0  0  0  0  0  0  0  0  0  0  0
    1.6360    0.3570    3.1331 H   0  0  0  0  0  0  0  0  0  0  0  0
    1.0212    1.5064    4.3521 H   0  0  0  0  0  0  0  0  0  0  0  0
    1.0646   -1.0455    5.4415 C   0  0  0  0  0  0  0  0  0  0  0  0
    2.3756    0.5226    6.0930 H   0  0  0  0  0  0  0  0  0  0  0  0
    3.1184   -0.6175    4.9606 H   0  0  0  0  0  0  0  0  0  0  0  0
   -0.2253   -0.3457    5.8583 C   0  0  0  0  0  0  0  0  0  0  0  0
    1.3783   -1.7183    6.2399 H   0  0  0  0  0  0  0  0  0  0  0  0
    0.8905   -1.6515    4.5481 H   0  0  0  0  0  0  0  0  0  0  0  0
   -0.0060    0.4404    6.5765 H   0  0  0  0  0  0  0  0  0  0  0  0
   -0.9078   -1.0571    6.3152 H   0  0  0  0  0  0  0  0  0  0  0  0
   -0.7298    0.0962    5.0024 H   0  0  0  0  0  0  0  0  0  0  0  0
    3.2536    2.2512    4.7053 H   0  0  0  0  0  0  0  0  0  0  0  0
  1  3  1  0  0  0  0
  1  4  1  0  0  0  0
  1  5  1  0  0  0  0
  2  6  1  0  0  0  0
  2  7  1  0  0  0  0
  2  8  1  0  0  0  0
  1  9  1  0  0  0  0
  2 10  1  0  0  0  0
  9 11  1  0  0  0  0
 10 11  1  0  0  0  0
  9 12  2  0  0  0  0
  9 13  2  0  0  0  0
 10 14  2  0  0  0  0
 10 15  2  0  0  0  0
 16 18  1  0  0  0  0
 16 19  1  0  0  0  0
 16 20  1  0  0  0  0
 17 21  1  0  0  0  0
 17 22  1  0  0  0  0
 17 23  1  0  0  0  0
 16 24  1  0  0  0  0
 17 25  1  0  0  0  0
 24 26  1  0  0  0  0
 25 26  1  0  0  0  0
 24 27  2  0  0  0  0
 24 28  2  0  0  0  0
 25 29  2  0  0  0  0
 25 30  2  0  0  0  0
 31 32  2  0  0  0  0
 31 33  1  0  0  0  0
 31 34  1  0  0  0  0
 32 35  1  0  0  0  0
 32 36  1  0  0  0  0
 35 37  4  0  0  0  0
 37 38  4  0  0  0  0
 38 39  4  0  0  0  0
 35 40  4  0  0  0  0
 39 41  4  0  0  0  0
 40 41  4  0  0  0  0
 40 42  1  0  0  0  0
 41 43  1  0  0  0  0
 38 44  1  0  0  0  0
 37 45  1  0  0  0  0
 39 46  1  0  0  0  0
 46 47  1  0  0  0  0
 46 48  1  0  0  0  0
 46 49  1  0  0  0  0
 47 50  1  0  0  0  0
 47 51  1  0  0  0  0
 51 52  1  0  0  0  0
 51 53  1  0  0  0  0
 51 54  1  0  0  0  0
 50 55  1  0  0  0  0
 52 55  1  0  0  0  0
 52 56  1  0  0  0  0
 52 57  1  0  0  0  0
 50 58  1  0  0  0  0
 50 59  1  0  0  0  0
 55 60  1  0  0  0  0
 60 61  1  0  0  0  0
 60 62  1  0  0  0  0
 60 63  1  0  0  0  0
 61 64  1  0  0  0  0
 61 65  1  0  0  0  0
 61 66  1  0  0  0  0
 64 67  1  0  0  0  0
 64 68  1  0  0  0  0
 64 69  1  0  0  0  0
 67 70  1  0  0  0  0
 67 71  1  0  0  0  0
 67 72  1  0  0  0  0
 55 73  1  0  0  0  0
 74 75  2  0  0  0  0
 74 76  1  0  0  0  0
 74 77  1  0  0  0  0
 75 78  1  0  0  0  0
 75 79  1  0  0  0  0
 78 80  4  0  0  0  0
 80 81  4  0  0  0  0
 81 82  4  0  0  0  0
 78 83  4  0  0  0  0
 82 84  4  0  0  0  0
 83 84  4  0  0  0  0
 83 85  1  0  0  0  0
 84 86  1  0  0  0  0
 81 87  1  0  0  0  0
 80 88  1  0  0  0  0
 82 89  1  0  0  0  0
 89 90  1  0  0  0  0
 89 91  1  0  0  0  0
 89 92  1  0  0  0  0
 90 93  1  0  0  0  0
 90 94  1  0  0  0  0
 94 95  1  0  0  0  0
 94 96  1  0  0  0  0
 94 97  1  0  0  0  0
 93 98  1  0  0  0  0
 95 98  1  0  0  0  0
 95 99  1  0  0  0  0
 95100  1  0  0  0  0
 93101  1  0  0  0  0
 93102  1  0  0  0  0
 98103  1  0  0  0  0
103104  1  0  0  0  0
103105  1  0  0  0  0
103106  1  0  0  0  0
104107  1  0  0  0  0
104108  1  0  0  0  0
104109  1  0  0  0  0
107110  1  0  0  0  0
107111  1  0  0  0  0
107112  1  0  0  0  0
110113  1  0  0  0  0
110114  1  0  0  0  0
110115  1  0  0  0  0
 98116  1  0  0  0  0
M  END
