 xtb: 6.7.1 (edcfbbe)
          10212513503D

116116  0     0  0            999 V2000
    4.1124    8.7175   10.7830 C   0  0  0  0  0  0  0  0  0  0  0  0
    3.7945    4.1047   10.9466 C   0  0  0  0  0  0  0  0  0  0  0  0
    4.9398    9.7698   10.6210 F   0  0  0  0  0  0  0  0  0  0  0  0
    3.2030    8.8252    9.8076 F   0  0  0  0  0  0  0  0  0  0  0  0
    3.5301    8.8475   11.9542 F   0  0  0  0  0  0  0  0  0  0  0  0
    3.1970    2.9884   10.5110 F   0  0  0  0  0  0  0  0  0  0  0  0
    5.0955    3.9731   10.6586 F   0  0  0  0  0  0  0  0  0  0  0  0
    3.6517    4.1459   12.2597 F   0  0  0  0  0  0  0  0  0  0  0  0
    5.1185    7.1278   10.5467 S   0  0  0  0  0  0  0  0  0  0  0  0
    3.0593    5.6159   10.0618 S   0  0  0  0  0  0  0  0  0  0  0  0
    4.3508    6.3174    9.4425 N   0  0  0  0  0  0  0  0  0  0  0  0
    6.3391    7.6339    9.9422 O   0  0  0  0  0  0  0  0  0  0  0  0
    5.2501    6.4948   11.8102 O   0  0  0  0  0  0  0  0  0  0  0  0
    2.4644    6.4364   11.0623 O   0  0  0  0  0  0  0  0  0  0  0  0
    2.2477    5.0693    9.0249 O   0  0  0  0  0  0  0  0  0  0  0  0
    7.6826   10.0123    1.6544 C   0  0  0  0  0  0  0  0  0  0  0  0
    3.3941    8.6348    1.2010 C   0  0  0  0  0  0  0  0  0  0  0  0
    6.8266   10.3613    0.6998 F   0  0  0  0  0  0  0  0  0  0  0  0
    8.5446   11.0150    1.8204 F   0  0  0  0  0  0  0  0  0  0  0  0
    8.3839    8.9617    1.2233 F   0  0  0  0  0  0  0  0  0  0  0  0
    3.7400    9.4995    0.2540 F   0  0  0  0  0  0  0  0  0  0  0  0
    2.8935    7.5495    0.6029 F   0  0  0  0  0  0  0  0  0  0  0  0
    2.4331    9.1790    1.9363 F   0  0  0  0  0  0  0  0  0  0  0  0
    6.7717    9.6120    3.2656 S   0  0  0  0  0  0  0  0  0  0  0  0
    4.8642    8.1560    2.2555 S   0  0  0  0  0  0  0  0  0  0  0  0
    5.2598    9.5584    2.8652 N   0  0  0  0  0  0  0  0  0  0  0  0
    7.2941    8.3197    3.6555 O   0  0  0  0  0  0  0  0  0  0  0  0
    7.0705   10.6798    4.1646 O   0  0  0  0  0  0  0  0  0  0  0  0
    5.8492    7.6199    1.3553 O   0  0  0  0  0  0  0  0  0  0  0  0
    4.3498    7.2301    3.2221 O   0  0  0  0  0  0  0  0  0  0  0  0
    8.3914   -1.2436    5.0816 C   0  0  0  0  0  0  0  0  0  0  0  0
    8.6793   -0.6979    3.9054 C   0  0  0  0  0  0  0  0  0  0  0  0
    7.9771   -2.2347    5.1480 H   0  0  0  0  0  0  0  0  0  0  0  0
    8.5454   -0.7372    6.0196 H   0  0  0  0  0  0  0  0  0  0  0  0
    9.2360    0.6313    3.6804 C   0  0  0  0  0  0  0  0  0  0  0  0
    8.4818   -1.2606    3.0013 H   0  0  0  0  0  0  0  0  0  0  0  0
    9.3114    1.1244    2.3757 C   0  0  0  0  0  0  0  0  0  0  0  0
    9.8431    2.3719    2.1109 C   0  0  0  0  0  0  0  0  0  0  0  0
   10.3147    3.1788    3.1450 C   0  0  0  0  0  0  0  0  0  0  0  0
    9.7177    1.4393    4.7123 C   0  0  0  0  0  0  0  0  0  0  0  0
   10.2399    2.6896    4.4468 C   0  0  0  0  0  0  0  0  0  0  0  0
    9.7009    1.0821    5.7294 H   0  0  0  0  0  0  0  0  0  0  0  0
   10.6269    3.2869    5.2607 H   0  0  0  0  0  0  0  0  0  0  0  0
    9.9199    2.7097    1.0872 H   0  0  0  0  0  0  0  0  0  0  0  0
    8.9622    0.5112    1.5576 H   0  0  0  0  0  0  0  0  0  0  0  0
   10.8980    4.5464    2.8773 C   0  0  0  0  0  0  0  0  0  0  0  0
    9.9366    5.6180    2.6275 N   0  0  0  0  0  0  0  0  0  0  0  0
   11.5679    4.5084    2.0165 H   0  0  0  0  0  0  0  0  0  0  0  0
   11.4910    4.8564    3.7425 H   0  0  0  0  0  0  0  0  0  0  0  0
    8.8349    5.6875    3.5192 C   0  0  0  0  0  0  0  0  0  0  0  0
    9.3303    5.6918    1.3076 C   0  0  0  0  0  0  0  0  0  0  0  0
    7.8863    5.1473    1.4603 C   0  0  0  0  0  0  0  0  0  0  0  0
    9.9179    5.1354    0.5790 H   0  0  0  0  0  0  0  0  0  0  0  0
    9.2951    6.7380    1.0013 H   0  0  0  0  0  0  0  0  0  0  0  0
    7.7818    4.7912    2.8936 N   0  0  0  0  0  0  0  0  0  0  0  0
    7.6935    4.2781    0.8341 H   0  0  0  0  0  0  0  0  0  0  0  0
    7.1587    5.9332    1.2455 H   0  0  0  0  0  0  0  0  0  0  0  0
    8.4075    6.6962    3.5353 H   0  0  0  0  0  0  0  0  0  0  0  0
    9.0736    5.3535    4.5277 H   0  0  0  0  0  0  0  0  0  0  0  0
    6.4368    4.9079    3.4819 C   0  0  0  0  0  0  0  0  0  0  0  0
    5.5019    3.8176    2.9755 C   0  0  0  0  0  0  0  0  0  0  0  0
    6.0405    5.8927    3.2372 H   0  0  0  0  0  0  0  0  0  0  0  0
    6.5332    4.8370    4.5676 H   0  0  0  0  0  0  0  0  0  0  0  0
    4.1307    3.9540    3.6379 C   0  0  0  0  0  0  0  0  0  0  0  0
    5.9174    2.8315    3.2080 H   0  0  0  0  0  0  0  0  0  0  0  0
    5.3790    3.8980    1.8941 H   0  0  0  0  0  0  0  0  0  0  0  0
    3.1621    2.8872    3.1445 C   0  0  0  0  0  0  0  0  0  0  0  0
    3.7373    4.9469    3.4216 H   0  0  0  0  0  0  0  0  0  0  0  0
    4.2450    3.8655    4.7182 H   0  0  0  0  0  0  0  0  0  0  0  0
    3.5368    1.8919    3.3761 H   0  0  0  0  0  0  0  0  0  0  0  0
    3.0171    2.9642    2.0695 H   0  0  0  0  0  0  0  0  0  0  0  0
    2.1979    3.0082    3.6285 H   0  0  0  0  0  0  0  0  0  0  0  0
    8.1130    3.8223    3.0121 H   0  0  0  0  0  0  0  0  0  0  0  0
    3.3810   -0.2249    5.6351 C   0  0  0  0  0  0  0  0  0  0  0  0
    4.6404    0.1942    5.6290 C   0  0  0  0  0  0  0  0  0  0  0  0
    3.1044   -1.1752    5.2116 H   0  0  0  0  0  0  0  0  0  0  0  0
    2.5799    0.3595    6.0526 H   0  0  0  0  0  0  0  0  0  0  0  0
    5.1286    1.4607    6.1623 C   0  0  0  0  0  0  0  0  0  0  0  0
    5.4045   -0.4277    5.1754 H   0  0  0  0  0  0  0  0  0  0  0  0
    6.4240    1.8697    5.8430 C   0  0  0  0  0  0  0  0  0  0  0  0
    6.9302    3.0642    6.3150 C   0  0  0  0  0  0  0  0  0  0  0  0
    6.1590    3.8966    7.1188 C   0  0  0  0  0  0  0  0  0  0  0  0
    4.3648    2.2918    6.9829 C   0  0  0  0  0  0  0  0  0  0  0  0
    4.8702    3.4916    7.4464 C   0  0  0  0  0  0  0  0  0  0  0  0
    3.3683    2.0034    7.2745 H   0  0  0  0  0  0  0  0  0  0  0  0
    4.2528    4.1186    8.0715 H   0  0  0  0  0  0  0  0  0  0  0  0
    7.9449    3.3482    6.0686 H   0  0  0  0  0  0  0  0  0  0  0  0
    7.0360    1.2363    5.2169 H   0  0  0  0  0  0  0  0  0  0  0  0
    6.7030    5.2200    7.5845 C   0  0  0  0  0  0  0  0  0  0  0  0
    6.5313    6.2087    6.5095 N   0  0  0  0  0  0  0  0  0  0  0  0
    7.7755    5.1228    7.7718 H   0  0  0  0  0  0  0  0  0  0  0  0
    6.2049    5.5224    8.5107 H   0  0  0  0  0  0  0  0  0  0  0  0
    7.3068    7.4016    6.6395 C   0  0  0  0  0  0  0  0  0  0  0  0
    5.1483    6.6653    6.3414 C   0  0  0  0  0  0  0  0  0  0  0  0
    5.1138    8.1385    6.7951 C   0  0  0  0  0  0  0  0  0  0  0  0
    4.4779    6.0603    6.9495 H   0  0  0  0  0  0  0  0  0  0  0  0
    4.8557    6.5943    5.2919 H   0  0  0  0  0  0  0  0  0  0  0  0
    6.4489    8.3872    7.3789 N   0  0  0  0  0  0  0  0  0  0  0  0
    4.3296    8.3158    7.5284 H   0  0  0  0  0  0  0  0  0  0  0  0
    4.9814    8.7955    5.9315 H   0  0  0  0  0  0  0  0  0  0  0  0
    7.4917    7.8247    5.6441 H   0  0  0  0  0  0  0  0  0  0  0  0
    8.2410    7.2270    7.1728 H   0  0  0  0  0  0  0  0  0  0  0  0
    6.8724    9.7991    7.2787 C   0  0  0  0  0  0  0  0  0  0  0  0
    8.2800   10.0613    7.8054 C   0  0  0  0  0  0  0  0  0  0  0  0
    6.1581   10.3955    7.8500 H   0  0  0  0  0  0  0  0  0  0  0  0
    6.8261   10.0962    6.2261 H   0  0  0  0  0  0  0  0  0  0  0  0
    8.4161    9.9249    9.3216 C   0  0  0  0  0  0  0  0  0  0  0  0
    8.5345   11.0836    7.5192 H   0  0  0  0  0  0  0  0  0  0  0  0
    8.9940    9.4079    7.3028 H   0  0  0  0  0  0  0  0  0  0  0  0
    9.8395   10.2363    9.7699 C   0  0  0  0  0  0  0  0  0  0  0  0
    8.1458    8.9200    9.6446 H   0  0  0  0  0  0  0  0  0  0  0  0
    7.7251   10.6159    9.8062 H   0  0  0  0  0  0  0  0  0  0  0  0
   10.1210   11.2461    9.4797 H   0  0  0  0  0  0  0  0  0  0  0  0
   10.5456    9.5429    9.3179 H   0  0  0  0  0  0  0  0  0  0  0  0
    9.9230   10.1534   10.8496 H   0  0  0  0  0  0  0  0  0  0  0  0
    6.4287    8.0996    8.3936 H   0  0  0  0  0  0  0  0  0  0  0  0
  1  3  1  0  0  0  0
  1  4  1  0  0  0  0
  1  5  1  0  0  0  0
  2  6  1  0  0  0  0
  2  7  1  0  0  0  0
  2  8  1  0  0  0  0
  1  9  1  0  0  0  0
  2 10  1  0  0  0  0
  9 11  1  0  0  0  0
 10 11  1  0  0  0  0
  9 12  2  0  0  0  0
  9 13  2  0  0  0  0
 10 14  2  0  0  0  0
 10 15  2  0  0  0  0
 16 18  1  0  0  0  0
 16 19  1  0  0  0  0
 16 20  1  0  0  0  0
 17 21  1  0  0  0  0
 17 22  1  0  0  0  0
 17 23  1  0  0  0  0
 16 24  1  0  0  0  0
 17 25  1  0  0  0  0
 24 26  1  0  0  0  0
 25 26  1  0  0  0  0
 24 27  2  0  0  0  0
 24 28  2  0  0  0  0
 25 29  2  0  0  0  0
 25 30  2  0  0  0  0
 31 32  2  0  0  0  0
 31 33  1  0  0  0  0
 31 34  1  0  0  0  0
 32 35  1  0  0  0  0
 32 36  1  0  0  0  0
 35 37  4  0  0  0  0
 37 38  4  0  0  0  0
 38 39  4  0  0  0  0
 35 40  4  0  0  0  0
 39 41  4  0  0  0  0
 40 41  4  0  0  0  0
 40 42  1  0  0  0  0
 41 43  1  0  0  0  0
 38 44  1  0  0  0  0
 37 45  1  0  0  0  0
 39 46  1  0  0  0  0
 46 47  1  0  0  0  0
 46 48  1  0  0  0  0
 46 49  1  0  0  0  0
 47 50  1  0  0  0  0
 47 51  1  0  0  0  0
 51 52  1  0  0  0  0
 51 53  1  0  0  0  0
 51 54  1  0  0  0  0
 50 55  1  0  0  0  0
 52 55  1  0  0  0  0
 52 56  1  0  0  0  0
 52 57  1  0  0  0  0
 50 58  1  0  0  0  0
 50 59  1  0  0  0  0
 55 60  1  0  0  0  0
 60 61  1  0  0  0  0
 60 62  1  0  0  0  0
 60 63  1  0  0  0  0
 61 64  1  0  0  0  0
 61 65  1  0  0  0  0
 61 66  1  0  0  0  0
 64 67  1  0  0  0  0
 64 68  1  0  0  0  0
 64 69  1  0  0  0  0
 67 70  1  0  0  0  0
 67 71  1  0  0  0  0
 67 72  1  0  0  0  0
 55 73  1  0  0  0  0
 74 75  2  0  0  0  0
 74 76  1  0  0  0  0
 74 77  1  0  0  0  0
 75 78  1  0  0  0  0
 75 79  1  0  0  0  0
 78 80  4  0  0  0  0
 80 81  4  0  0  0  0
 81 82  4  0  0  0  0
 78 83  4  0  0  0  0
 82 84  4  0  0  0  0
 83 84  4  0  0  0  0
 83 85  1  0  0  0  0
 84 86  1  0  0  0  0
 81 87  1  0  0  0  0
 80 88  1  0  0  0  0
 82 89  1  0  0  0  0
 89 90  1  0  0  0  0
 89 91  1  0  0  0  0
 89 92  1  0  0  0  0
 90 93  1  0  0  0  0
 90 94  1  0  0  0  0
 94 95  1  0  0  0  0
 94 96  1  0  0  0  0
 94 97  1  0  0  0  0
 93 98  1  0  0  0  0
 95 98  1  0  0  0  0
 95 99  1  0  0  0  0
 95100  1  0  0  0  0
 93101  1  0  0  0  0
 93102  1  0  0  0  0
 98103  1  0  0  0  0
103104  1  0  0  0  0
103105  1  0  0  0  0
103106  1  0  0  0  0
104107  1  0  0  0  0
104108  1  0  0  0  0
104109  1  0  0  0  0
107110  1  0  0  0  0
107111  1  0  0  0  0
107112  1  0  0  0  0
110113  1  0  0  0  0
110114  1  0  0  0  0
110115  1  0  0  0  0
 98116  1  0  0  0  0
M  END
