 xtb: 6.7.1 (edcfbbe)
          10212513483D

116116  0     0  0            999 V2000
    2.1204    9.0423    5.4446 C   0  0  0  0  0  0  0  0  0  0  0  0
    0.2680    4.8911    4.4238 C   0  0  0  0  0  0  0  0  0  0  0  0
    3.0162    9.2075    4.4812 F   0  0  0  0  0  0  0  0  0  0  0  0
    0.9638    9.5691    5.0862 F   0  0  0  0  0  0  0  0  0  0  0  0
    2.5560    9.7747    6.4815 F   0  0  0  0  0  0  0  0  0  0  0  0
    0.0181    3.8047    3.6705 F   0  0  0  0  0  0  0  0  0  0  0  0
    0.1296    4.4757    5.6973 F   0  0  0  0  0  0  0  0  0  0  0  0
   -0.6873    5.7588    4.1776 F   0  0  0  0  0  0  0  0  0  0  0  0
    1.8877    7.2828    6.1013 S   0  0  0  0  0  0  0  0  0  0  0  0
    2.1340    5.2114    4.2263 S   0  0  0  0  0  0  0  0  0  0  0  0
    2.6075    6.0406    5.4530 N   0  0  0  0  0  0  0  0  0  0  0  0
    2.5902    7.4057    7.3797 O   0  0  0  0  0  0  0  0  0  0  0  0
    0.4850    7.0811    6.2964 O   0  0  0  0  0  0  0  0  0  0  0  0
    2.4698    5.5374    2.8517 O   0  0  0  0  0  0  0  0  0  0  0  0
    2.5682    3.8600    4.5145 O   0  0  0  0  0  0  0  0  0  0  0  0
    5.4221    8.5271    1.9790 C   0  0  0  0  0  0  0  0  0  0  0  0
    0.7789    6.6096    1.2330 C   0  0  0  0  0  0  0  0  0  0  0  0
    6.6927    8.1512    2.2085 F   0  0  0  0  0  0  0  0  0  0  0  0
    5.3411    8.8129    0.6786 F   0  0  0  0  0  0  0  0  0  0  0  0
    5.2279    9.6534    2.6596 F   0  0  0  0  0  0  0  0  0  0  0  0
    1.7394    6.1073    0.4527 F   0  0  0  0  0  0  0  0  0  0  0  0
    0.1134    5.5704    1.7446 F   0  0  0  0  0  0  0  0  0  0  0  0
   -0.0765    7.2313    0.4196 F   0  0  0  0  0  0  0  0  0  0  0  0
    4.1842    7.1832    2.4581 S   0  0  0  0  0  0  0  0  0  0  0  0
    1.4722    7.8721    2.4872 S   0  0  0  0  0  0  0  0  0  0  0  0
    2.9432    8.0210    2.0142 N   0  0  0  0  0  0  0  0  0  0  0  0
    4.5899    6.1232    1.5576 O   0  0  0  0  0  0  0  0  0  0  0  0
    4.4376    6.9630    3.8459 O   0  0  0  0  0  0  0  0  0  0  0  0
    1.2758    7.3362    3.8328 O   0  0  0  0  0  0  0  0  0  0  0  0
    0.7345    9.0462    2.1910 O   0  0  0  0  0  0  0  0  0  0  0  0
    7.0098    9.3887    9.3540 C   0  0  0  0  0  0  0  0  0  0  0  0
    7.3893    8.1258    9.5046 C   0  0  0  0  0  0  0  0  0  0  0  0
    7.5211   10.1910    9.8579 H   0  0  0  0  0  0  0  0  0  0  0  0
    6.1779    9.6710    8.7323 H   0  0  0  0  0  0  0  0  0  0  0  0
    6.7671    6.9621    8.8835 C   0  0  0  0  0  0  0  0  0  0  0  0
    8.2197    7.8975   10.1631 H   0  0  0  0  0  0  0  0  0  0  0  0
    7.0983    5.6900    9.3528 C   0  0  0  0  0  0  0  0  0  0  0  0
    6.4842    4.5651    8.8405 C   0  0  0  0  0  0  0  0  0  0  0  0
    5.5210    4.6759    7.8416 C   0  0  0  0  0  0  0  0  0  0  0  0
    5.8580    7.0568    7.8279 C   0  0  0  0  0  0  0  0  0  0  0  0
    5.2479    5.9316    7.3082 C   0  0  0  0  0  0  0  0  0  0  0  0
    5.6131    8.0164    7.4047 H   0  0  0  0  0  0  0  0  0  0  0  0
    4.5478    6.0307    6.4927 H   0  0  0  0  0  0  0  0  0  0  0  0
    6.7591    3.5888    9.2181 H   0  0  0  0  0  0  0  0  0  0  0  0
    7.8350    5.5871   10.1374 H   0  0  0  0  0  0  0  0  0  0  0  0
    4.7319    3.4703    7.4068 C   0  0  0  0  0  0  0  0  0  0  0  0
    3.5087    3.2381    8.1828 N   0  0  0  0  0  0  0  0  0  0  0  0
    5.3381    2.5648    7.5171 H   0  0  0  0  0  0  0  0  0  0  0  0
    4.4236    3.5680    6.3652 H   0  0  0  0  0  0  0  0  0  0  0  0
    2.3401    3.9491    7.8044 C   0  0  0  0  0  0  0  0  0  0  0  0
    3.5841    3.4192    9.6137 C   0  0  0  0  0  0  0  0  0  0  0  0
    3.1226    4.8712    9.8583 C   0  0  0  0  0  0  0  0  0  0  0  0
    4.5860    3.2341    9.9911 H   0  0  0  0  0  0  0  0  0  0  0  0
    2.8902    2.7176   10.0883 H   0  0  0  0  0  0  0  0  0  0  0  0
    2.1978    5.1530    8.7359 N   0  0  0  0  0  0  0  0  0  0  0  0
    3.9693    5.5549    9.8161 H   0  0  0  0  0  0  0  0  0  0  0  0
    2.6127    4.9778   10.8128 H   0  0  0  0  0  0  0  0  0  0  0  0
    1.4609    3.3191    7.9812 H   0  0  0  0  0  0  0  0  0  0  0  0
    2.3656    4.2702    6.7649 H   0  0  0  0  0  0  0  0  0  0  0  0
    0.7873    5.3808    9.1249 C   0  0  0  0  0  0  0  0  0  0  0  0
    0.4925    6.8043    9.5925 C   0  0  0  0  0  0  0  0  0  0  0  0
    0.5213    4.6462    9.8918 H   0  0  0  0  0  0  0  0  0  0  0  0
    0.1809    5.2122    8.2332 H   0  0  0  0  0  0  0  0  0  0  0  0
    1.2177    7.2668   10.8547 C   0  0  0  0  0  0  0  0  0  0  0  0
   -0.5840    6.8625    9.7641 H   0  0  0  0  0  0  0  0  0  0  0  0
    0.7295    7.4821    8.7738 H   0  0  0  0  0  0  0  0  0  0  0  0
    0.7255    8.6473   11.2753 C   0  0  0  0  0  0  0  0  0  0  0  0
    2.2894    7.3282   10.6645 H   0  0  0  0  0  0  0  0  0  0  0  0
    1.0426    6.5606   11.6720 H   0  0  0  0  0  0  0  0  0  0  0  0
   -0.3391    8.6270   11.4958 H   0  0  0  0  0  0  0  0  0  0  0  0
    0.8979    9.3609   10.4746 H   0  0  0  0  0  0  0  0  0  0  0  0
    1.2542    8.9879   12.1623 H   0  0  0  0  0  0  0  0  0  0  0  0
    2.4891    6.0253    8.2117 H   0  0  0  0  0  0  0  0  0  0  0  0
    8.8544    7.2572    6.5595 C   0  0  0  0  0  0  0  0  0  0  0  0
    9.0430    5.9702    6.3008 C   0  0  0  0  0  0  0  0  0  0  0  0
    9.2227    7.7134    7.4617 H   0  0  0  0  0  0  0  0  0  0  0  0
    8.3354    7.9057    5.8755 H   0  0  0  0  0  0  0  0  0  0  0  0
    8.6211    5.2994    5.0764 C   0  0  0  0  0  0  0  0  0  0  0  0
    9.5993    5.3571    6.9992 H   0  0  0  0  0  0  0  0  0  0  0  0
    9.3105    4.1658    4.6448 C   0  0  0  0  0  0  0  0  0  0  0  0
    9.0060    3.5653    3.4387 C   0  0  0  0  0  0  0  0  0  0  0  0
    7.9999    4.0775    2.6273 C   0  0  0  0  0  0  0  0  0  0  0  0
    7.5775    5.7778    4.2843 C   0  0  0  0  0  0  0  0  0  0  0  0
    7.2806    5.1801    3.0757 C   0  0  0  0  0  0  0  0  0  0  0  0
    6.9807    6.6151    4.6073 H   0  0  0  0  0  0  0  0  0  0  0  0
    6.4883    5.5916    2.4721 H   0  0  0  0  0  0  0  0  0  0  0  0
    9.5701    2.7020    3.1124 H   0  0  0  0  0  0  0  0  0  0  0  0
   10.1128    3.7692    5.2513 H   0  0  0  0  0  0  0  0  0  0  0  0
    7.6975    3.4487    1.2901 C   0  0  0  0  0  0  0  0  0  0  0  0
    6.4429    2.7018    1.1880 N   0  0  0  0  0  0  0  0  0  0  0  0
    8.4957    2.7391    1.0434 H   0  0  0  0  0  0  0  0  0  0  0  0
    7.6871    4.2193    0.5174 H   0  0  0  0  0  0  0  0  0  0  0  0
    5.2827    3.3826    0.6836 C   0  0  0  0  0  0  0  0  0  0  0  0
    6.0158    2.0071    2.3867 C   0  0  0  0  0  0  0  0  0  0  0  0
    4.9178    2.8983    2.9828 C   0  0  0  0  0  0  0  0  0  0  0  0
    6.8508    1.8698    3.0713 H   0  0  0  0  0  0  0  0  0  0  0  0
    5.6222    1.0253    2.1070 H   0  0  0  0  0  0  0  0  0  0  0  0
    4.2601    3.4717    1.7877 N   0  0  0  0  0  0  0  0  0  0  0  0
    5.3583    3.7086    3.5648 H   0  0  0  0  0  0  0  0  0  0  0  0
    4.1906    2.3854    3.6068 H   0  0  0  0  0  0  0  0  0  0  0  0
    4.8411    2.8045   -0.1352 H   0  0  0  0  0  0  0  0  0  0  0  0
    5.5092    4.3903    0.3299 H   0  0  0  0  0  0  0  0  0  0  0  0
    2.9480    2.8668    1.4639 C   0  0  0  0  0  0  0  0  0  0  0  0
    2.9809    1.3612    1.2116 C   0  0  0  0  0  0  0  0  0  0  0  0
    2.5602    3.3878    0.5862 H   0  0  0  0  0  0  0  0  0  0  0  0
    2.2922    3.0909    2.3056 H   0  0  0  0  0  0  0  0  0  0  0  0
    1.5910    0.8298    0.8461 C   0  0  0  0  0  0  0  0  0  0  0  0
    3.3203    0.8365    2.1047 H   0  0  0  0  0  0  0  0  0  0  0  0
    3.6675    1.1282    0.3954 H   0  0  0  0  0  0  0  0  0  0  0  0
    0.6595    0.7430    2.0488 C   0  0  0  0  0  0  0  0  0  0  0  0
    1.7050   -0.1676    0.4156 H   0  0  0  0  0  0  0  0  0  0  0  0
    1.1457    1.4699    0.0834 H   0  0  0  0  0  0  0  0  0  0  0  0
    1.0862    0.0977    2.8134 H   0  0  0  0  0  0  0  0  0  0  0  0
   -0.2980    0.3266    1.7478 H   0  0  0  0  0  0  0  0  0  0  0  0
    0.4829    1.7210    2.4830 H   0  0  0  0  0  0  0  0  0  0  0  0
    4.0726    4.4885    1.9368 H   0  0  0  0  0  0  0  0  0  0  0  0
  1  3  1  0  0  0  0
  1  4  1  0  0  0  0
  1  5  1  0  0  0  0
  2  6  1  0  0  0  0
  2  7  1  0  0  0  0
  2  8  1  0  0  0  0
  1  9  1  0  0  0  0
  2 10  1  0  0  0  0
  9 11  1  0  0  0  0
 10 11  1  0  0  0  0
  9 12  2  0  0  0  0
  9 13  2  0  0  0  0
 10 14  2  0  0  0  0
 10 15  2  0  0  0  0
 16 18  1  0  0  0  0
 16 19  1  0  0  0  0
 16 20  1  0  0  0  0
 17 21  1  0  0  0  0
 17 22  1  0  0  0  0
 17 23  1  0  0  0  0
 16 24  1  0  0  0  0
 17 25  1  0  0  0  0
 24 26  1  0  0  0  0
 25 26  1  0  0  0  0
 24 27  2  0  0  0  0
 24 28  2  0  0  0  0
 25 29  2  0  0  0  0
 25 30  2  0  0  0  0
 31 32  2  0  0  0  0
 31 33  1  0  0  0  0
 31 34  1  0  0  0  0
 32 35  1  0  0  0  0
 32 36  1  0  0  0  0
 35 37  4  0  0  0  0
 37 38  4  0  0  0  0
 38 39  4  0  0  0  0
 35 40  4  0  0  0  0
 39 41  4  0  0  0  0
 40 41  4  0  0  0  0
 40 42  1  0  0  0  0
 41 43  1  0  0  0  0
 38 44  1  0  0  0  0
 37 45  1  0  0  0  0
 39 46  1  0  0  0  0
 46 47  1  0  0  0  0
 46 48  1  0  0  0  0
 46 49  1  0  0  0  0
 47 50  1  0  0  0  0
 47 51  1  0  0  0  0
 51 52  1  0  0  0  0
 51 53  1  0  0  0  0
 51 54  1  0  0  0  0
 50 55  1  0  0  0  0
 52 55  1  0  0  0  0
 52 56  1  0  0  0  0
 52 57  1  0  0  0  0
 50 58  1  0  0  0  0
 50 59  1  0  0  0  0
 55 60  1  0  0  0  0
 60 61  1  0  0  0  0
 60 62  1  0  0  0  0
 60 63  1  0  0  0  0
 61 64  1  0  0  0  0
 61 65  1  0  0  0  0
 61 66  1  0  0  0  0
 64 67  1  0  0  0  0
 64 68  1  0  0  0  0
 64 69  1  0  0  0  0
 67 70  1  0  0  0  0
 67 71  1  0  0  0  0
 67 72  1  0  0  0  0
 55 73  1  0  0  0  0
 74 75  2  0  0  0  0
 74 76  1  0  0  0  0
 74 77  1  0  0  0  0
 75 78  1  0  0  0  0
 75 79  1  0  0  0  0
 78 80  4  0  0  0  0
 80 81  4  0  0  0  0
 81 82  4  0  0  0  0
 78 83  4  0  0  0  0
 82 84  4  0  0  0  0
 83 84  4  0  0  0  0
 83 85  1  0  0  0  0
 84 86  1  0  0  0  0
 81 87  1  0  0  0  0
 80 88  1  0  0  0  0
 82 89  1  0  0  0  0
 89 90  1  0  0  0  0
 89 91  1  0  0  0  0
 89 92  1  0  0  0  0
 90 93  1  0  0  0  0
 90 94  1  0  0  0  0
 94 95  1  0  0  0  0
 94 96  1  0  0  0  0
 94 97  1  0  0  0  0
 93 98  1  0  0  0  0
 95 98  1  0  0  0  0
 95 99  1  0  0  0  0
 95100  1  0  0  0  0
 93101  1  0  0  0  0
 93102  1  0  0  0  0
 98103  1  0  0  0  0
103104  1  0  0  0  0
103105  1  0  0  0  0
103106  1  0  0  0  0
104107  1  0  0  0  0
104108  1  0  0  0  0
104109  1  0  0  0  0
107110  1  0  0  0  0
107111  1  0  0  0  0
107112  1  0  0  0  0
110113  1  0  0  0  0
110114  1  0  0  0  0
110115  1  0  0  0  0
 98116  1  0  0  0  0
M  END
