 xtb: 6.7.1 (edcfbbe)
          10212513343D

116116  0     0  0            999 V2000
    0.9086    3.2352    7.3609 C   0  0  0  0  0  0  0  0  0  0  0  0
    2.0599    6.9391    7.8953 C   0  0  0  0  0  0  0  0  0  0  0  0
    0.1342    2.3326    7.9486 F   0  0  0  0  0  0  0  0  0  0  0  0
    0.2212    4.3680    7.2387 F   0  0  0  0  0  0  0  0  0  0  0  0
    1.1744    2.8012    6.1174 F   0  0  0  0  0  0  0  0  0  0  0  0
    1.4965    7.0056    6.6874 F   0  0  0  0  0  0  0  0  0  0  0  0
    1.1696    6.4551    8.7466 F   0  0  0  0  0  0  0  0  0  0  0  0
    2.3460    8.1927    8.2759 F   0  0  0  0  0  0  0  0  0  0  0  0
    2.5604    3.5002    8.2307 S   0  0  0  0  0  0  0  0  0  0  0  0
    3.6500    5.9403    7.7410 S   0  0  0  0  0  0  0  0  0  0  0  0
    3.1605    4.5522    7.1871 N   0  0  0  0  0  0  0  0  0  0  0  0
    2.2980    4.0472    9.5109 O   0  0  0  0  0  0  0  0  0  0  0  0
    3.1970    2.2309    8.0959 O   0  0  0  0  0  0  0  0  0  0  0  0
    4.2708    5.9532    9.0260 O   0  0  0  0  0  0  0  0  0  0  0  0
    4.3537    6.6435    6.7069 O   0  0  0  0  0  0  0  0  0  0  0  0
    9.2361    4.3396    3.5144 C   0  0  0  0  0  0  0  0  0  0  0  0
   10.7955    4.3441    7.6593 C   0  0  0  0  0  0  0  0  0  0  0  0
    9.1240    3.1416    4.0924 F   0  0  0  0  0  0  0  0  0  0  0  0
    8.0517    4.5774    2.9135 F   0  0  0  0  0  0  0  0  0  0  0  0
   10.1435    4.2462    2.5496 F   0  0  0  0  0  0  0  0  0  0  0  0
   10.4258    3.2571    6.9811 F   0  0  0  0  0  0  0  0  0  0  0  0
   11.6212    3.9433    8.6326 F   0  0  0  0  0  0  0  0  0  0  0  0
    9.7112    4.8348    8.2702 F   0  0  0  0  0  0  0  0  0  0  0  0
    9.6436    5.6817    4.7765 S   0  0  0  0  0  0  0  0  0  0  0  0
   11.6554    5.5965    6.5160 S   0  0  0  0  0  0  0  0  0  0  0  0
   11.1019    5.2144    5.0940 N   0  0  0  0  0  0  0  0  0  0  0  0
    9.4865    6.8957    4.0354 O   0  0  0  0  0  0  0  0  0  0  0  0
    8.6856    5.4638    5.8279 O   0  0  0  0  0  0  0  0  0  0  0  0
   13.0381    5.2837    6.6523 O   0  0  0  0  0  0  0  0  0  0  0  0
   11.2044    6.8712    6.9874 O   0  0  0  0  0  0  0  0  0  0  0  0
   10.1628   10.0586    4.3801 C   0  0  0  0  0  0  0  0  0  0  0  0
   10.2583   10.4652    5.6398 C   0  0  0  0  0  0  0  0  0  0  0  0
   10.4648   10.6968    3.5661 H   0  0  0  0  0  0  0  0  0  0  0  0
    9.8263    9.0696    4.1198 H   0  0  0  0  0  0  0  0  0  0  0  0
    9.9044    9.6590    6.8033 C   0  0  0  0  0  0  0  0  0  0  0  0
   10.6654   11.4448    5.8658 H   0  0  0  0  0  0  0  0  0  0  0  0
   10.5116    9.9196    8.0311 C   0  0  0  0  0  0  0  0  0  0  0  0
   10.2248    9.1578    9.1477 C   0  0  0  0  0  0  0  0  0  0  0  0
    9.3142    8.1121    9.0776 C   0  0  0  0  0  0  0  0  0  0  0  0
    8.9941    8.6055    6.7289 C   0  0  0  0  0  0  0  0  0  0  0  0
    8.7007    7.8440    7.8477 C   0  0  0  0  0  0  0  0  0  0  0  0
    8.5391    8.3502    5.7862 H   0  0  0  0  0  0  0  0  0  0  0  0
    8.0855    6.9623    7.7266 H   0  0  0  0  0  0  0  0  0  0  0  0
   10.7413    9.3603   10.0759 H   0  0  0  0  0  0  0  0  0  0  0  0
   11.2448   10.7104    8.1008 H   0  0  0  0  0  0  0  0  0  0  0  0
    8.9071    7.3461   10.3124 C   0  0  0  0  0  0  0  0  0  0  0  0
    7.6899    7.8587   10.9605 N   0  0  0  0  0  0  0  0  0  0  0  0
    9.6992    7.3884   11.0623 H   0  0  0  0  0  0  0  0  0  0  0  0
    8.7249    6.2999   10.0673 H   0  0  0  0  0  0  0  0  0  0  0  0
    6.4949    7.7210   10.2092 C   0  0  0  0  0  0  0  0  0  0  0  0
    7.7189    9.2699   11.2960 C   0  0  0  0  0  0  0  0  0  0  0  0
    7.0486   10.0053   10.1038 C   0  0  0  0  0  0  0  0  0  0  0  0
    8.7376    9.6064   11.4702 H   0  0  0  0  0  0  0  0  0  0  0  0
    7.1386    9.4223   12.2095 H   0  0  0  0  0  0  0  0  0  0  0  0
    6.5130    8.9126    9.2647 N   0  0  0  0  0  0  0  0  0  0  0  0
    7.7648   10.5991    9.5379 H   0  0  0  0  0  0  0  0  0  0  0  0
    6.2291   10.6419   10.4382 H   0  0  0  0  0  0  0  0  0  0  0  0
    5.6164    7.8245   10.8541 H   0  0  0  0  0  0  0  0  0  0  0  0
    6.4183    6.7842    9.6602 H   0  0  0  0  0  0  0  0  0  0  0  0
    5.2757    9.1944    8.5303 C   0  0  0  0  0  0  0  0  0  0  0  0
    5.4958   10.2498    7.4503 C   0  0  0  0  0  0  0  0  0  0  0  0
    4.4990    9.5059    9.2326 H   0  0  0  0  0  0  0  0  0  0  0  0
    4.9594    8.2640    8.0566 H   0  0  0  0  0  0  0  0  0  0  0  0
    4.2974   10.3039    6.5028 C   0  0  0  0  0  0  0  0  0  0  0  0
    6.3874    9.9941    6.8728 H   0  0  0  0  0  0  0  0  0  0  0  0
    5.6519   11.2340    7.8980 H   0  0  0  0  0  0  0  0  0  0  0  0
    4.5126   11.3257    5.3936 C   0  0  0  0  0  0  0  0  0  0  0  0
    3.3995   10.5578    7.0686 H   0  0  0  0  0  0  0  0  0  0  0  0
    4.1509    9.3130    6.0708 H   0  0  0  0  0  0  0  0  0  0  0  0
    3.6504   11.3543    4.7336 H   0  0  0  0  0  0  0  0  0  0  0  0
    5.3888   11.0686    4.8038 H   0  0  0  0  0  0  0  0  0  0  0  0
    4.6579   12.3205    5.8092 H   0  0  0  0  0  0  0  0  0  0  0  0
    7.2594    8.6525    8.5628 H   0  0  0  0  0  0  0  0  0  0  0  0
    8.7590   -0.6066   11.7874 C   0  0  0  0  0  0  0  0  0  0  0  0
    7.7163    0.2045   11.6543 C   0  0  0  0  0  0  0  0  0  0  0  0
    8.8737   -1.2332   12.6553 H   0  0  0  0  0  0  0  0  0  0  0  0
    9.5404   -0.6750   11.0506 H   0  0  0  0  0  0  0  0  0  0  0  0
    7.4489    1.0978   10.5334 C   0  0  0  0  0  0  0  0  0  0  0  0
    6.9752    0.2402   12.4438 H   0  0  0  0  0  0  0  0  0  0  0  0
    6.4374    2.0521   10.6528 C   0  0  0  0  0  0  0  0  0  0  0  0
    6.1387    2.9129    9.6136 C   0  0  0  0  0  0  0  0  0  0  0  0
    6.8419    2.8341    8.4186 C   0  0  0  0  0  0  0  0  0  0  0  0
    8.1543    1.0348    9.3297 C   0  0  0  0  0  0  0  0  0  0  0  0
    7.8527    1.8870    8.2884 C   0  0  0  0  0  0  0  0  0  0  0  0
    8.9372    0.3038    9.2025 H   0  0  0  0  0  0  0  0  0  0  0  0
    8.3942    1.8288    7.3575 H   0  0  0  0  0  0  0  0  0  0  0  0
    5.3471    3.6422    9.7246 H   0  0  0  0  0  0  0  0  0  0  0  0
    5.8752    2.1168   11.5733 H   0  0  0  0  0  0  0  0  0  0  0  0
    6.5069    3.7378    7.2694 C   0  0  0  0  0  0  0  0  0  0  0  0
    6.3522    2.9821    6.0292 N   0  0  0  0  0  0  0  0  0  0  0  0
    7.3373    4.4281    7.0875 H   0  0  0  0  0  0  0  0  0  0  0  0
    5.6056    4.3234    7.5159 H   0  0  0  0  0  0  0  0  0  0  0  0
    5.8743    3.7373    4.9350 C   0  0  0  0  0  0  0  0  0  0  0  0
    5.5282    1.7803    6.0845 C   0  0  0  0  0  0  0  0  0  0  0  0
    4.3041    2.0609    5.1917 C   0  0  0  0  0  0  0  0  0  0  0  0
    5.2188    1.5735    7.1089 H   0  0  0  0  0  0  0  0  0  0  0  0
    6.1002    0.9289    5.7063 H   0  0  0  0  0  0  0  0  0  0  0  0
    4.3690    3.5145    4.9256 N   0  0  0  0  0  0  0  0  0  0  0  0
    3.3772    1.7985    5.6947 H   0  0  0  0  0  0  0  0  0  0  0  0
    4.3784    1.5333    4.2385 H   0  0  0  0  0  0  0  0  0  0  0  0
    6.2403    3.3195    3.9903 H   0  0  0  0  0  0  0  0  0  0  0  0
    6.1409    4.7891    5.0132 H   0  0  0  0  0  0  0  0  0  0  0  0
    3.6300    3.9181    3.7139 C   0  0  0  0  0  0  0  0  0  0  0  0
    3.1559    5.3692    3.7254 C   0  0  0  0  0  0  0  0  0  0  0  0
    2.7458    3.2788    3.6521 H   0  0  0  0  0  0  0  0  0  0  0  0
    4.2635    3.7250    2.8450 H   0  0  0  0  0  0  0  0  0  0  0  0
    4.2364    6.4388    3.5513 C   0  0  0  0  0  0  0  0  0  0  0  0
    2.6262    5.5567    4.6614 H   0  0  0  0  0  0  0  0  0  0  0  0
    2.4361    5.4697    2.9096 H   0  0  0  0  0  0  0  0  0  0  0  0
    5.0634    6.2761    2.2811 C   0  0  0  0  0  0  0  0  0  0  0  0
    4.8825    6.4635    4.4271 H   0  0  0  0  0  0  0  0  0  0  0  0
    3.7230    7.4015    3.5155 H   0  0  0  0  0  0  0  0  0  0  0  0
    5.7220    5.4147    2.3324 H   0  0  0  0  0  0  0  0  0  0  0  0
    5.6919    7.1500    2.1375 H   0  0  0  0  0  0  0  0  0  0  0  0
    4.4151    6.1754    1.4127 H   0  0  0  0  0  0  0  0  0  0  0  0
    3.9567    4.0064    5.7548 H   0  0  0  0  0  0  0  0  0  0  0  0
  1  3  1  0  0  0  0
  1  4  1  0  0  0  0
  1  5  1  0  0  0  0
  2  6  1  0  0  0  0
  2  7  1  0  0  0  0
  2  8  1  0  0  0  0
  1  9  1  0  0  0  0
  2 10  1  0  0  0  0
  9 11  1  0  0  0  0
 10 11  1  0  0  0  0
  9 12  2  0  0  0  0
  9 13  2  0  0  0  0
 10 14  2  0  0  0  0
 10 15  2  0  0  0  0
 16 18  1  0  0  0  0
 16 19  1  0  0  0  0
 16 20  1  0  0  0  0
 17 21  1  0  0  0  0
 17 22  1  0  0  0  0
 17 23  1  0  0  0  0
 16 24  1  0  0  0  0
 17 25  1  0  0  0  0
 24 26  1  0  0  0  0
 25 26  1  0  0  0  0
 24 27  2  0  0  0  0
 24 28  2  0  0  0  0
 25 29  2  0  0  0  0
 25 30  2  0  0  0  0
 31 32  2  0  0  0  0
 31 33  1  0  0  0  0
 31 34  1  0  0  0  0
 32 35  1  0  0  0  0
 32 36  1  0  0  0  0
 35 37  4  0  0  0  0
 37 38  4  0  0  0  0
 38 39  4  0  0  0  0
 35 40  4  0  0  0  0
 39 41  4  0  0  0  0
 40 41  4  0  0  0  0
 40 42  1  0  0  0  0
 41 43  1  0  0  0  0
 38 44  1  0  0  0  0
 37 45  1  0  0  0  0
 39 46  1  0  0  0  0
 46 47  1  0  0  0  0
 46 48  1  0  0  0  0
 46 49  1  0  0  0  0
 47 50  1  0  0  0  0
 47 51  1  0  0  0  0
 51 52  1  0  0  0  0
 51 53  1  0  0  0  0
 51 54  1  0  0  0  0
 50 55  1  0  0  0  0
 52 55  1  0  0  0  0
 52 56  1  0  0  0  0
 52 57  1  0  0  0  0
 50 58  1  0  0  0  0
 50 59  1  0  0  0  0
 55 60  1  0  0  0  0
 60 61  1  0  0  0  0
 60 62  1  0  0  0  0
 60 63  1  0  0  0  0
 61 64  1  0  0  0  0
 61 65  1  0  0  0  0
 61 66  1  0  0  0  0
 64 67  1  0  0  0  0
 64 68  1  0  0  0  0
 64 69  1  0  0  0  0
 67 70  1  0  0  0  0
 67 71  1  0  0  0  0
 67 72  1  0  0  0  0
 55 73  1  0  0  0  0
 74 75  2  0  0  0  0
 74 76  1  0  0  0  0
 74 77  1  0  0  0  0
 75 78  1  0  0  0  0
 75 79  1  0  0  0  0
 78 80  4  0  0  0  0
 80 81  4  0  0  0  0
 81 82  4  0  0  0  0
 78 83  4  0  0  0  0
 82 84  4  0  0  0  0
 83 84  4  0  0  0  0
 83 85  1  0  0  0  0
 84 86  1  0  0  0  0
 81 87  1  0  0  0  0
 80 88  1  0  0  0  0
 82 89  1  0  0  0  0
 89 90  1  0  0  0  0
 89 91  1  0  0  0  0
 89 92  1  0  0  0  0
 90 93  1  0  0  0  0
 90 94  1  0  0  0  0
 94 95  1  0  0  0  0
 94 96  1  0  0  0  0
 94 97  1  0  0  0  0
 93 98  1  0  0  0  0
 95 98  1  0  0  0  0
 95 99  1  0  0  0  0
 95100  1  0  0  0  0
 93101  1  0  0  0  0
 93102  1  0  0  0  0
 98103  1  0  0  0  0
103104  1  0  0  0  0
103105  1  0  0  0  0
103106  1  0  0  0  0
104107  1  0  0  0  0
104108  1  0  0  0  0
104109  1  0  0  0  0
107110  1  0  0  0  0
107111  1  0  0  0  0
107112  1  0  0  0  0
110113  1  0  0  0  0
110114  1  0  0  0  0
110115  1  0  0  0  0
 98116  1  0  0  0  0
M  END
