 xtb: 6.7.1 (edcfbbe)
          10212513473D

116116  0     0  0            999 V2000
    3.4990    3.5111    5.5677 C   0  0  0  0  0  0  0  0  0  0  0  0
    7.6990    3.4164    9.4360 C   0  0  0  0  0  0  0  0  0  0  0  0
    3.4948    3.3841    4.2191 F   0  0  0  0  0  0  0  0  0  0  0  0
    2.4612    2.8256    6.0002 F   0  0  0  0  0  0  0  0  0  0  0  0
    3.3112    4.8100    5.7838 F   0  0  0  0  0  0  0  0  0  0  0  0
    9.0138    3.2559    9.1789 F   0  0  0  0  0  0  0  0  0  0  0  0
    7.6405    4.4552   10.2662 F   0  0  0  0  0  0  0  0  0  0  0  0
    7.3129    2.3206   10.0542 F   0  0  0  0  0  0  0  0  0  0  0  0
    5.2698    2.9399    5.9486 S   0  0  0  0  0  0  0  0  0  0  0  0
    6.8956    3.8330    7.7702 S   0  0  0  0  0  0  0  0  0  0  0  0
    5.7144    2.8320    7.4524 N   0  0  0  0  0  0  0  0  0  0  0  0
    5.3488    1.6977    5.2507 O   0  0  0  0  0  0  0  0  0  0  0  0
    5.9695    4.0322    5.2858 O   0  0  0  0  0  0  0  0  0  0  0  0
    8.0067    3.5642    6.8794 O   0  0  0  0  0  0  0  0  0  0  0  0
    6.5811    5.2335    7.8234 O   0  0  0  0  0  0  0  0  0  0  0  0
    4.1679    1.3985    8.8575 C   0  0  0  0  0  0  0  0  0  0  0  0
    4.5224    3.8317   12.4944 C   0  0  0  0  0  0  0  0  0  0  0  0
    3.3456    0.7210    9.6606 F   0  0  0  0  0  0  0  0  0  0  0  0
    3.7667    1.1346    7.6112 F   0  0  0  0  0  0  0  0  0  0  0  0
    5.3704    0.8634    9.0335 F   0  0  0  0  0  0  0  0  0  0  0  0
    4.9749    2.6115   12.2213 F   0  0  0  0  0  0  0  0  0  0  0  0
    5.5163    4.7079   12.3176 F   0  0  0  0  0  0  0  0  0  0  0  0
    4.2335    3.8616   13.8014 F   0  0  0  0  0  0  0  0  0  0  0  0
    4.0225    3.2495    9.2314 S   0  0  0  0  0  0  0  0  0  0  0  0
    2.9801    4.2502   11.4652 S   0  0  0  0  0  0  0  0  0  0  0  0
    2.9430    3.1336   10.3685 N   0  0  0  0  0  0  0  0  0  0  0  0
    5.2670    3.7754    9.7371 O   0  0  0  0  0  0  0  0  0  0  0  0
    3.5090    3.8780    8.0505 O   0  0  0  0  0  0  0  0  0  0  0  0
    3.2481    5.5697   10.9475 O   0  0  0  0  0  0  0  0  0  0  0  0
    1.9015    4.1453   12.3898 O   0  0  0  0  0  0  0  0  0  0  0  0
    3.2406   10.0432    0.5797 C   0  0  0  0  0  0  0  0  0  0  0  0
    3.2085    8.9516    1.3345 C   0  0  0  0  0  0  0  0  0  0  0  0
    2.4170   10.3040   -0.0619 H   0  0  0  0  0  0  0  0  0  0  0  0
    4.0811   10.7161    0.5601 H   0  0  0  0  0  0  0  0  0  0  0  0
    4.2534    8.4855    2.2384 C   0  0  0  0  0  0  0  0  0  0  0  0
    2.3366    8.3107    1.2921 H   0  0  0  0  0  0  0  0  0  0  0  0
    5.3800    9.2459    2.5569 C   0  0  0  0  0  0  0  0  0  0  0  0
    6.3362    8.7656    3.4288 C   0  0  0  0  0  0  0  0  0  0  0  0
    6.1998    7.5117    4.0145 C   0  0  0  0  0  0  0  0  0  0  0  0
    4.1264    7.2252    2.8251 C   0  0  0  0  0  0  0  0  0  0  0  0
    5.0849    6.7441    3.6956 C   0  0  0  0  0  0  0  0  0  0  0  0
    3.2654    6.6142    2.5967 H   0  0  0  0  0  0  0  0  0  0  0  0
    4.9699    5.7726    4.1507 H   0  0  0  0  0  0  0  0  0  0  0  0
    7.2004    9.3692    3.6648 H   0  0  0  0  0  0  0  0  0  0  0  0
    5.5044   10.2275    2.1259 H   0  0  0  0  0  0  0  0  0  0  0  0
    7.2305    6.9857    4.9737 C   0  0  0  0  0  0  0  0  0  0  0  0
    8.3866    6.4470    4.2450 N   0  0  0  0  0  0  0  0  0  0  0  0
    6.7826    6.2283    5.6298 H   0  0  0  0  0  0  0  0  0  0  0  0
    7.6170    7.8085    5.5801 H   0  0  0  0  0  0  0  0  0  0  0  0
    8.0899    5.3268    3.4054 C   0  0  0  0  0  0  0  0  0  0  0  0
    9.4742    6.0269    5.1327 C   0  0  0  0  0  0  0  0  0  0  0  0
    9.7135    4.5382    4.8487 C   0  0  0  0  0  0  0  0  0  0  0  0
    9.1846    6.1634    6.1765 H   0  0  0  0  0  0  0  0  0  0  0  0
   10.3678    6.6231    4.9271 H   0  0  0  0  0  0  0  0  0  0  0  0
    8.4744    4.1082    4.1791 N   0  0  0  0  0  0  0  0  0  0  0  0
    9.8553    3.9662    5.7628 H   0  0  0  0  0  0  0  0  0  0  0  0
   10.5505    4.3914    4.1609 H   0  0  0  0  0  0  0  0  0  0  0  0
    8.7246    5.3552    2.5085 H   0  0  0  0  0  0  0  0  0  0  0  0
    7.0383    5.2994    3.1261 H   0  0  0  0  0  0  0  0  0  0  0  0
    8.6273    2.8784    3.3880 C   0  0  0  0  0  0  0  0  0  0  0  0
    7.3197    2.4089    2.7576 C   0  0  0  0  0  0  0  0  0  0  0  0
    9.0021    2.1002    4.0564 H   0  0  0  0  0  0  0  0  0  0  0  0
    9.3776    3.0772    2.6138 H   0  0  0  0  0  0  0  0  0  0  0  0
    7.5103    1.1142    1.9619 C   0  0  0  0  0  0  0  0  0  0  0  0
    6.9253    3.1775    2.0901 H   0  0  0  0  0  0  0  0  0  0  0  0
    6.5894    2.2333    3.5479 H   0  0  0  0  0  0  0  0  0  0  0  0
    8.3180    1.3066    0.6816 C   0  0  0  0  0  0  0  0  0  0  0  0
    6.5227    0.7328    1.7036 H   0  0  0  0  0  0  0  0  0  0  0  0
    7.9929    0.3676    2.5941 H   0  0  0  0  0  0  0  0  0  0  0  0
    7.8809    2.0925    0.0691 H   0  0  0  0  0  0  0  0  0  0  0  0
    8.3221    0.3887    0.1001 H   0  0  0  0  0  0  0  0  0  0  0  0
    9.3509    1.5664    0.8965 H   0  0  0  0  0  0  0  0  0  0  0  0
    7.7372    3.9577    4.9096 H   0  0  0  0  0  0  0  0  0  0  0  0
    1.1276   12.5456    7.8360 C   0  0  0  0  0  0  0  0  0  0  0  0
    1.6464   12.0782    8.9650 C   0  0  0  0  0  0  0  0  0  0  0  0
    0.0960   12.8460    7.7782 H   0  0  0  0  0  0  0  0  0  0  0  0
    1.6968   12.6408    6.9270 H   0  0  0  0  0  0  0  0  0  0  0  0
    3.0213   11.6341    9.1584 C   0  0  0  0  0  0  0  0  0  0  0  0
    1.0142   11.9844    9.8386 H   0  0  0  0  0  0  0  0  0  0  0  0
    3.3533   10.9228   10.3137 C   0  0  0  0  0  0  0  0  0  0  0  0
    4.6397   10.4621   10.5251 C   0  0  0  0  0  0  0  0  0  0  0  0
    5.6445   10.7035    9.5880 C   0  0  0  0  0  0  0  0  0  0  0  0
    4.0373   11.8983    8.2391 C   0  0  0  0  0  0  0  0  0  0  0  0
    5.3215   11.4364    8.4506 C   0  0  0  0  0  0  0  0  0  0  0  0
    3.8246   12.4752    7.3533 H   0  0  0  0  0  0  0  0  0  0  0  0
    6.0925   11.6564    7.7252 H   0  0  0  0  0  0  0  0  0  0  0  0
    4.8691    9.9311   11.4383 H   0  0  0  0  0  0  0  0  0  0  0  0
    2.5907   10.7250   11.0527 H   0  0  0  0  0  0  0  0  0  0  0  0
    7.0306   10.1310    9.7537 C   0  0  0  0  0  0  0  0  0  0  0  0
    7.1415    8.6929    9.5060 N   0  0  0  0  0  0  0  0  0  0  0  0
    7.4087   10.3227   10.7591 H   0  0  0  0  0  0  0  0  0  0  0  0
    7.7056   10.6260    9.0477 H   0  0  0  0  0  0  0  0  0  0  0  0
    6.3303    8.1772    8.4528 C   0  0  0  0  0  0  0  0  0  0  0  0
    6.8977    7.7904   10.6286 C   0  0  0  0  0  0  0  0  0  0  0  0
    5.5695    7.0708   10.3222 C   0  0  0  0  0  0  0  0  0  0  0  0
    6.8688    8.3399   11.5691 H   0  0  0  0  0  0  0  0  0  0  0  0
    7.7073    7.0604   10.6823 H   0  0  0  0  0  0  0  0  0  0  0  0
    5.0450    7.7579    9.1209 N   0  0  0  0  0  0  0  0  0  0  0  0
    4.8425    7.1046   11.1296 H   0  0  0  0  0  0  0  0  0  0  0  0
    5.7362    6.0260   10.0637 H   0  0  0  0  0  0  0  0  0  0  0  0
    6.7612    7.2537    8.0535 H   0  0  0  0  0  0  0  0  0  0  0  0
    6.1580    8.9063    7.6628 H   0  0  0  0  0  0  0  0  0  0  0  0
    4.0915    6.9531    8.3275 C   0  0  0  0  0  0  0  0  0  0  0  0
    3.0776    7.8054    7.5758 C   0  0  0  0  0  0  0  0  0  0  0  0
    3.5610    6.3040    9.0281 H   0  0  0  0  0  0  0  0  0  0  0  0
    4.6585    6.3087    7.6565 H   0  0  0  0  0  0  0  0  0  0  0  0
    3.6585    8.6822    6.4663 C   0  0  0  0  0  0  0  0  0  0  0  0
    2.5202    8.4283    8.2817 H   0  0  0  0  0  0  0  0  0  0  0  0
    2.3730    7.1057    7.1268 H   0  0  0  0  0  0  0  0  0  0  0  0
    2.5557    9.2681    5.5918 C   0  0  0  0  0  0  0  0  0  0  0  0
    4.3240    8.0806    5.8471 H   0  0  0  0  0  0  0  0  0  0  0  0
    4.2298    9.5097    6.8926 H   0  0  0  0  0  0  0  0  0  0  0  0
    1.9913    8.4727    5.1141 H   0  0  0  0  0  0  0  0  0  0  0  0
    2.9816    9.8973    4.8139 H   0  0  0  0  0  0  0  0  0  0  0  0
    1.8718    9.8666    6.1904 H   0  0  0  0  0  0  0  0  0  0  0  0
    4.5606    8.6155    9.4299 H   0  0  0  0  0  0  0  0  0  0  0  0
  1  3  1  0  0  0  0
  1  4  1  0  0  0  0
  1  5  1  0  0  0  0
  2  6  1  0  0  0  0
  2  7  1  0  0  0  0
  2  8  1  0  0  0  0
  1  9  1  0  0  0  0
  2 10  1  0  0  0  0
  9 11  1  0  0  0  0
 10 11  1  0  0  0  0
  9 12  2  0  0  0  0
  9 13  2  0  0  0  0
 10 14  2  0  0  0  0
 10 15  2  0  0  0  0
 16 18  1  0  0  0  0
 16 19  1  0  0  0  0
 16 20  1  0  0  0  0
 17 21  1  0  0  0  0
 17 22  1  0  0  0  0
 17 23  1  0  0  0  0
 16 24  1  0  0  0  0
 17 25  1  0  0  0  0
 24 26  1  0  0  0  0
 25 26  1  0  0  0  0
 24 27  2  0  0  0  0
 24 28  2  0  0  0  0
 25 29  2  0  0  0  0
 25 30  2  0  0  0  0
 31 32  2  0  0  0  0
 31 33  1  0  0  0  0
 31 34  1  0  0  0  0
 32 35  1  0  0  0  0
 32 36  1  0  0  0  0
 35 37  4  0  0  0  0
 37 38  4  0  0  0  0
 38 39  4  0  0  0  0
 35 40  4  0  0  0  0
 39 41  4  0  0  0  0
 40 41  4  0  0  0  0
 40 42  1  0  0  0  0
 41 43  1  0  0  0  0
 38 44  1  0  0  0  0
 37 45  1  0  0  0  0
 39 46  1  0  0  0  0
 46 47  1  0  0  0  0
 46 48  1  0  0  0  0
 46 49  1  0  0  0  0
 47 50  1  0  0  0  0
 47 51  1  0  0  0  0
 51 52  1  0  0  0  0
 51 53  1  0  0  0  0
 51 54  1  0  0  0  0
 50 55  1  0  0  0  0
 52 55  1  0  0  0  0
 52 56  1  0  0  0  0
 52 57  1  0  0  0  0
 50 58  1  0  0  0  0
 50 59  1  0  0  0  0
 55 60  1  0  0  0  0
 60 61  1  0  0  0  0
 60 62  1  0  0  0  0
 60 63  1  0  0  0  0
 61 64  1  0  0  0  0
 61 65  1  0  0  0  0
 61 66  1  0  0  0  0
 64 67  1  0  0  0  0
 64 68  1  0  0  0  0
 64 69  1  0  0  0  0
 67 70  1  0  0  0  0
 67 71  1  0  0  0  0
 67 72  1  0  0  0  0
 55 73  1  0  0  0  0
 74 75  2  0  0  0  0
 74 76  1  0  0  0  0
 74 77  1  0  0  0  0
 75 78  1  0  0  0  0
 75 79  1  0  0  0  0
 78 80  4  0  0  0  0
 80 81  4  0  0  0  0
 81 82  4  0  0  0  0
 78 83  4  0  0  0  0
 82 84  4  0  0  0  0
 83 84  4  0  0  0  0
 83 85  1  0  0  0  0
 84 86  1  0  0  0  0
 81 87  1  0  0  0  0
 80 88  1  0  0  0  0
 82 89  1  0  0  0  0
 89 90  1  0  0  0  0
 89 91  1  0  0  0  0
 89 92  1  0  0  0  0
 90 93  1  0  0  0  0
 90 94  1  0  0  0  0
 94 95  1  0  0  0  0
 94 96  1  0  0  0  0
 94 97  1  0  0  0  0
 93 98  1  0  0  0  0
 95 98  1  0  0  0  0
 95 99  1  0  0  0  0
 95100  1  0  0  0  0
 93101  1  0  0  0  0
 93102  1  0  0  0  0
 98103  1  0  0  0  0
103104  1  0  0  0  0
103105  1  0  0  0  0
103106  1  0  0  0  0
104107  1  0  0  0  0
104108  1  0  0  0  0
104109  1  0  0  0  0
107110  1  0  0  0  0
107111  1  0  0  0  0
107112  1  0  0  0  0
110113  1  0  0  0  0
110114  1  0  0  0  0
110115  1  0  0  0  0
 98116  1  0  0  0  0
M  END
