 xtb: 6.7.1 (edcfbbe)
          10212513393D

116116  0     0  0            999 V2000
    3.9311    3.0149    5.9450 C   0  0  0  0  0  0  0  0  0  0  0  0
    5.1557    3.4788   11.0090 C   0  0  0  0  0  0  0  0  0  0  0  0
    4.3992    2.3741    4.8420 F   0  0  0  0  0  0  0  0  0  0  0  0
    3.1845    2.1380    6.5839 F   0  0  0  0  0  0  0  0  0  0  0  0
    3.1711    3.9821    5.4411 F   0  0  0  0  0  0  0  0  0  0  0  0
    5.9315    2.5075   11.5212 F   0  0  0  0  0  0  0  0  0  0  0  0
    5.8970    4.5755   11.0356 F   0  0  0  0  0  0  0  0  0  0  0  0
    4.1258    3.6096   11.8272 F   0  0  0  0  0  0  0  0  0  0  0  0
    5.5645    3.3871    6.8570 S   0  0  0  0  0  0  0  0  0  0  0  0
    4.6469    2.9092    9.2805 S   0  0  0  0  0  0  0  0  0  0  0  0
    5.5807    3.8037    8.3550 N   0  0  0  0  0  0  0  0  0  0  0  0
    6.1851    2.1018    6.6344 O   0  0  0  0  0  0  0  0  0  0  0  0
    6.2019    4.3842    6.0001 O   0  0  0  0  0  0  0  0  0  0  0  0
    3.2507    3.1772    9.0519 O   0  0  0  0  0  0  0  0  0  0  0  0
    5.0107    1.5312    9.2508 O   0  0  0  0  0  0  0  0  0  0  0  0
    1.3474    4.6467    8.6302 C   0  0  0  0  0  0  0  0  0  0  0  0
    2.7800    8.7151   10.6721 C   0  0  0  0  0  0  0  0  0  0  0  0
    0.9024    4.0862    9.7278 F   0  0  0  0  0  0  0  0  0  0  0  0
    0.4542    5.5779    8.2340 F   0  0  0  0  0  0  0  0  0  0  0  0
    1.3301    3.7575    7.6418 F   0  0  0  0  0  0  0  0  0  0  0  0
    2.0968    9.2924   11.6564 F   0  0  0  0  0  0  0  0  0  0  0  0
    3.8199    8.0836   11.2000 F   0  0  0  0  0  0  0  0  0  0  0  0
    3.2712    9.7088    9.9032 F   0  0  0  0  0  0  0  0  0  0  0  0
    3.0433    5.4747    8.7197 S   0  0  0  0  0  0  0  0  0  0  0  0
    1.6421    7.6404    9.6123 S   0  0  0  0  0  0  0  0  0  0  0  0
    2.5988    7.0099    8.5232 N   0  0  0  0  0  0  0  0  0  0  0  0
    3.7702    5.3847    9.9381 O   0  0  0  0  0  0  0  0  0  0  0  0
    3.6812    5.1632    7.4667 O   0  0  0  0  0  0  0  0  0  0  0  0
    0.8230    8.6346    8.9830 O   0  0  0  0  0  0  0  0  0  0  0  0
    1.0735    6.6894   10.4992 O   0  0  0  0  0  0  0  0  0  0  0  0
   12.0592    7.7416   10.1210 C   0  0  0  0  0  0  0  0  0  0  0  0
   11.0160    6.9236   10.0479 C   0  0  0  0  0  0  0  0  0  0  0  0
   12.9983    7.4145   10.5334 H   0  0  0  0  0  0  0  0  0  0  0  0
   12.0264    8.7610    9.7772 H   0  0  0  0  0  0  0  0  0  0  0  0
    9.6918    7.2377    9.5222 C   0  0  0  0  0  0  0  0  0  0  0  0
   11.1230    5.9066   10.4050 H   0  0  0  0  0  0  0  0  0  0  0  0
    9.3029    8.5313    9.1676 C   0  0  0  0  0  0  0  0  0  0  0  0
    8.0175    8.7853    8.7363 C   0  0  0  0  0  0  0  0  0  0  0  0
    7.0848    7.7580    8.6317 C   0  0  0  0  0  0  0  0  0  0  0  0
    8.7582    6.2090    9.3756 C   0  0  0  0  0  0  0  0  0  0  0  0
    7.4748    6.4582    8.9258 C   0  0  0  0  0  0  0  0  0  0  0  0
    9.0377    5.1983    9.6356 H   0  0  0  0  0  0  0  0  0  0  0  0
    6.7650    5.6495    8.8295 H   0  0  0  0  0  0  0  0  0  0  0  0
    7.7176    9.7947    8.4958 H   0  0  0  0  0  0  0  0  0  0  0  0
   10.0013    9.3483    9.2632 H   0  0  0  0  0  0  0  0  0  0  0  0
    5.6507    8.0684    8.3018 C   0  0  0  0  0  0  0  0  0  0  0  0
    5.5123    8.6490    6.9638 N   0  0  0  0  0  0  0  0  0  0  0  0
    5.3102    8.8260    9.0097 H   0  0  0  0  0  0  0  0  0  0  0  0
    5.0447    7.1632    8.4344 H   0  0  0  0  0  0  0  0  0  0  0  0
    4.2681    9.3040    6.7239 C   0  0  0  0  0  0  0  0  0  0  0  0
    5.6086    7.6732    5.8851 C   0  0  0  0  0  0  0  0  0  0  0  0
    4.1569    7.3553    5.4486 C   0  0  0  0  0  0  0  0  0  0  0  0
    6.1202    6.7724    6.2212 H   0  0  0  0  0  0  0  0  0  0  0  0
    6.1774    8.1259    5.0662 H   0  0  0  0  0  0  0  0  0  0  0  0
    3.3266    8.2080    6.3207 N   0  0  0  0  0  0  0  0  0  0  0  0
    3.9196    6.3085    5.6239 H   0  0  0  0  0  0  0  0  0  0  0  0
    3.9755    7.6152    4.4040 H   0  0  0  0  0  0  0  0  0  0  0  0
    4.3819    9.9830    5.8703 H   0  0  0  0  0  0  0  0  0  0  0  0
    3.8902    9.8446    7.5892 H   0  0  0  0  0  0  0  0  0  0  0  0
    1.9914    8.5872    5.8205 C   0  0  0  0  0  0  0  0  0  0  0  0
    1.9946    9.6392    4.7138 C   0  0  0  0  0  0  0  0  0  0  0  0
    1.4189    8.9371    6.6834 H   0  0  0  0  0  0  0  0  0  0  0  0
    1.5186    7.6716    5.4583 H   0  0  0  0  0  0  0  0  0  0  0  0
    0.6192    9.7374    4.0480 C   0  0  0  0  0  0  0  0  0  0  0  0
    2.7294    9.3804    3.9475 H   0  0  0  0  0  0  0  0  0  0  0  0
    2.2549   10.6161    5.1234 H   0  0  0  0  0  0  0  0  0  0  0  0
   -0.4653   10.2289    4.9990 C   0  0  0  0  0  0  0  0  0  0  0  0
    0.3408    8.7594    3.6509 H   0  0  0  0  0  0  0  0  0  0  0  0
    0.6927   10.4273    3.2045 H   0  0  0  0  0  0  0  0  0  0  0  0
   -0.1887   11.1882    5.4293 H   0  0  0  0  0  0  0  0  0  0  0  0
   -0.6305    9.5249    5.8090 H   0  0  0  0  0  0  0  0  0  0  0  0
   -1.4012   10.3543    4.4603 H   0  0  0  0  0  0  0  0  0  0  0  0
    3.1052    7.6575    7.2173 H   0  0  0  0  0  0  0  0  0  0  0  0
    5.7926    8.4425   -0.3824 C   0  0  0  0  0  0  0  0  0  0  0  0
    5.9796    7.8793    0.8047 C   0  0  0  0  0  0  0  0  0  0  0  0
    5.7712    9.5123   -0.4983 H   0  0  0  0  0  0  0  0  0  0  0  0
    5.6437    7.8682   -1.2804 H   0  0  0  0  0  0  0  0  0  0  0  0
    6.0170    6.4495    1.0887 C   0  0  0  0  0  0  0  0  0  0  0  0
    6.1001    8.5136    1.6753 H   0  0  0  0  0  0  0  0  0  0  0  0
    5.9164    6.0179    2.4117 C   0  0  0  0  0  0  0  0  0  0  0  0
    5.9271    4.6758    2.7380 C   0  0  0  0  0  0  0  0  0  0  0  0
    6.0758    3.7134    1.7452 C   0  0  0  0  0  0  0  0  0  0  0  0
    6.1479    5.4782    0.0957 C   0  0  0  0  0  0  0  0  0  0  0  0
    6.1858    4.1376    0.4237 C   0  0  0  0  0  0  0  0  0  0  0  0
    6.2367    5.7728   -0.9382 H   0  0  0  0  0  0  0  0  0  0  0  0
    6.2957    3.4026   -0.3615 H   0  0  0  0  0  0  0  0  0  0  0  0
    5.8115    4.3900    3.7724 H   0  0  0  0  0  0  0  0  0  0  0  0
    5.8238    6.7431    3.2051 H   0  0  0  0  0  0  0  0  0  0  0  0
    6.1593    2.2463    2.0789 C   0  0  0  0  0  0  0  0  0  0  0  0
    7.4260    1.8122    2.6699 N   0  0  0  0  0  0  0  0  0  0  0  0
    6.0339    1.6673    1.1570 H   0  0  0  0  0  0  0  0  0  0  0  0
    5.3599    1.9694    2.7635 H   0  0  0  0  0  0  0  0  0  0  0  0
    7.5370    1.6275    4.0670 C   0  0  0  0  0  0  0  0  0  0  0  0
    8.6141    2.5495    2.3144 C   0  0  0  0  0  0  0  0  0  0  0  0
    8.8520    3.5262    3.4908 C   0  0  0  0  0  0  0  0  0  0  0  0
    8.4932    3.0664    1.3649 H   0  0  0  0  0  0  0  0  0  0  0  0
    9.4520    1.8497    2.2318 H   0  0  0  0  0  0  0  0  0  0  0  0
    8.1754    2.8950    4.6495 N   0  0  0  0  0  0  0  0  0  0  0  0
    8.4060    4.4983    3.2858 H   0  0  0  0  0  0  0  0  0  0  0  0
    9.9133    3.6413    3.6897 H   0  0  0  0  0  0  0  0  0  0  0  0
    8.2533    0.8217    4.2664 H   0  0  0  0  0  0  0  0  0  0  0  0
    6.6014    1.4155    4.5794 H   0  0  0  0  0  0  0  0  0  0  0  0
    9.0403    2.5759    5.8060 C   0  0  0  0  0  0  0  0  0  0  0  0
    9.5206    3.7992    6.5849 C   0  0  0  0  0  0  0  0  0  0  0  0
    9.8891    1.9860    5.4471 H   0  0  0  0  0  0  0  0  0  0  0  0
    8.4219    1.9688    6.4716 H   0  0  0  0  0  0  0  0  0  0  0  0
   10.6650    4.5847    5.9352 C   0  0  0  0  0  0  0  0  0  0  0  0
    9.8728    3.4319    7.5498 H   0  0  0  0  0  0  0  0  0  0  0  0
    8.6702    4.4530    6.7828 H   0  0  0  0  0  0  0  0  0  0  0  0
   11.3776    5.4722    6.9482 C   0  0  0  0  0  0  0  0  0  0  0  0
   10.2867    5.2218    5.1351 H   0  0  0  0  0  0  0  0  0  0  0  0
   11.3932    3.8862    5.5123 H   0  0  0  0  0  0  0  0  0  0  0  0
   12.1867    6.0191    6.4707 H   0  0  0  0  0  0  0  0  0  0  0  0
   11.7987    4.8767    7.7536 H   0  0  0  0  0  0  0  0  0  0  0  0
   10.6838    6.1882    7.3772 H   0  0  0  0  0  0  0  0  0  0  0  0
    7.4184    3.5019    5.0368 H   0  0  0  0  0  0  0  0  0  0  0  0
  1  3  1  0  0  0  0
  1  4  1  0  0  0  0
  1  5  1  0  0  0  0
  2  6  1  0  0  0  0
  2  7  1  0  0  0  0
  2  8  1  0  0  0  0
  1  9  1  0  0  0  0
  2 10  1  0  0  0  0
  9 11  1  0  0  0  0
 10 11  1  0  0  0  0
  9 12  2  0  0  0  0
  9 13  2  0  0  0  0
 10 14  2  0  0  0  0
 10 15  2  0  0  0  0
 16 18  1  0  0  0  0
 16 19  1  0  0  0  0
 16 20  1  0  0  0  0
 17 21  1  0  0  0  0
 17 22  1  0  0  0  0
 17 23  1  0  0  0  0
 16 24  1  0  0  0  0
 17 25  1  0  0  0  0
 24 26  1  0  0  0  0
 25 26  1  0  0  0  0
 24 27  2  0  0  0  0
 24 28  2  0  0  0  0
 25 29  2  0  0  0  0
 25 30  2  0  0  0  0
 31 32  2  0  0  0  0
 31 33  1  0  0  0  0
 31 34  1  0  0  0  0
 32 35  1  0  0  0  0
 32 36  1  0  0  0  0
 35 37  4  0  0  0  0
 37 38  4  0  0  0  0
 38 39  4  0  0  0  0
 35 40  4  0  0  0  0
 39 41  4  0  0  0  0
 40 41  4  0  0  0  0
 40 42  1  0  0  0  0
 41 43  1  0  0  0  0
 38 44  1  0  0  0  0
 37 45  1  0  0  0  0
 39 46  1  0  0  0  0
 46 47  1  0  0  0  0
 46 48  1  0  0  0  0
 46 49  1  0  0  0  0
 47 50  1  0  0  0  0
 47 51  1  0  0  0  0
 51 52  1  0  0  0  0
 51 53  1  0  0  0  0
 51 54  1  0  0  0  0
 50 55  1  0  0  0  0
 52 55  1  0  0  0  0
 52 56  1  0  0  0  0
 52 57  1  0  0  0  0
 50 58  1  0  0  0  0
 50 59  1  0  0  0  0
 55 60  1  0  0  0  0
 60 61  1  0  0  0  0
 60 62  1  0  0  0  0
 60 63  1  0  0  0  0
 61 64  1  0  0  0  0
 61 65  1  0  0  0  0
 61 66  1  0  0  0  0
 64 67  1  0  0  0  0
 64 68  1  0  0  0  0
 64 69  1  0  0  0  0
 67 70  1  0  0  0  0
 67 71  1  0  0  0  0
 67 72  1  0  0  0  0
 55 73  1  0  0  0  0
 74 75  2  0  0  0  0
 74 76  1  0  0  0  0
 74 77  1  0  0  0  0
 75 78  1  0  0  0  0
 75 79  1  0  0  0  0
 78 80  4  0  0  0  0
 80 81  4  0  0  0  0
 81 82  4  0  0  0  0
 78 83  4  0  0  0  0
 82 84  4  0  0  0  0
 83 84  4  0  0  0  0
 83 85  1  0  0  0  0
 84 86  1  0  0  0  0
 81 87  1  0  0  0  0
 80 88  1  0  0  0  0
 82 89  1  0  0  0  0
 89 90  1  0  0  0  0
 89 91  1  0  0  0  0
 89 92  1  0  0  0  0
 90 93  1  0  0  0  0
 90 94  1  0  0  0  0
 94 95  1  0  0  0  0
 94 96  1  0  0  0  0
 94 97  1  0  0  0  0
 93 98  1  0  0  0  0
 95 98  1  0  0  0  0
 95 99  1  0  0  0  0
 95100  1  0  0  0  0
 93101  1  0  0  0  0
 93102  1  0  0  0  0
 98103  1  0  0  0  0
103104  1  0  0  0  0
103105  1  0  0  0  0
103106  1  0  0  0  0
104107  1  0  0  0  0
104108  1  0  0  0  0
104109  1  0  0  0  0
107110  1  0  0  0  0
107111  1  0  0  0  0
107112  1  0  0  0  0
110113  1  0  0  0  0
110114  1  0  0  0  0
110115  1  0  0  0  0
 98116  1  0  0  0  0
M  END
