 xtb: 6.7.1 (edcfbbe)
          10212513413D

116116  0     0  0            999 V2000
    2.9098    1.5613    6.3680 C   0  0  0  0  0  0  0  0  0  0  0  0
    6.1041    2.7157    9.4856 C   0  0  0  0  0  0  0  0  0  0  0  0
    2.4324    0.7124    7.2607 F   0  0  0  0  0  0  0  0  0  0  0  0
    1.8865    1.9435    5.5930 F   0  0  0  0  0  0  0  0  0  0  0  0
    3.7754    0.9274    5.5788 F   0  0  0  0  0  0  0  0  0  0  0  0
    5.3764    2.0808   10.3840 F   0  0  0  0  0  0  0  0  0  0  0  0
    7.3876    2.6016    9.8427 F   0  0  0  0  0  0  0  0  0  0  0  0
    5.8005    4.0103    9.4964 F   0  0  0  0  0  0  0  0  0  0  0  0
    3.6451    3.1059    7.1889 S   0  0  0  0  0  0  0  0  0  0  0  0
    5.9175    1.9972    7.7495 S   0  0  0  0  0  0  0  0  0  0  0  0
    5.2023    3.0962    6.8633 N   0  0  0  0  0  0  0  0  0  0  0  0
    3.0192    4.1999    6.5013 O   0  0  0  0  0  0  0  0  0  0  0  0
    3.4059    2.9756    8.5865 O   0  0  0  0  0  0  0  0  0  0  0  0
    5.1734    0.7905    7.8487 O   0  0  0  0  0  0  0  0  0  0  0  0
    7.2875    1.8863    7.2892 O   0  0  0  0  0  0  0  0  0  0  0  0
    9.1974    6.4313    8.7225 C   0  0  0  0  0  0  0  0  0  0  0  0
    8.2123   10.6291    8.2409 C   0  0  0  0  0  0  0  0  0  0  0  0
    8.7828    6.7655    7.4865 F   0  0  0  0  0  0  0  0  0  0  0  0
   10.4314    5.9336    8.5794 F   0  0  0  0  0  0  0  0  0  0  0  0
    8.4121    5.4247    9.1152 F   0  0  0  0  0  0  0  0  0  0  0  0
    9.3091   11.3422    8.4159 F   0  0  0  0  0  0  0  0  0  0  0  0
    8.4435    9.6788    7.3286 F   0  0  0  0  0  0  0  0  0  0  0  0
    7.2953   11.4466    7.6819 F   0  0  0  0  0  0  0  0  0  0  0  0
    9.1598    7.9071    9.9106 S   0  0  0  0  0  0  0  0  0  0  0  0
    7.4665    9.8818    9.8234 S   0  0  0  0  0  0  0  0  0  0  0  0
    7.6544    8.3323    9.6339 N   0  0  0  0  0  0  0  0  0  0  0  0
    9.4198    7.3199   11.1774 O   0  0  0  0  0  0  0  0  0  0  0  0
   10.0854    8.8352    9.3501 O   0  0  0  0  0  0  0  0  0  0  0  0
    6.0674   10.2019    9.6567 O   0  0  0  0  0  0  0  0  0  0  0  0
    8.1398   10.4681   10.9276 O   0  0  0  0  0  0  0  0  0  0  0  0
    0.6620    3.3479    0.7113 C   0  0  0  0  0  0  0  0  0  0  0  0
    1.8057    2.7293    0.4434 C   0  0  0  0  0  0  0  0  0  0  0  0
   -0.1263    3.4052   -0.0196 H   0  0  0  0  0  0  0  0  0  0  0  0
    0.4585    3.8097    1.6622 H   0  0  0  0  0  0  0  0  0  0  0  0
    2.9429    2.5734    1.3423 C   0  0  0  0  0  0  0  0  0  0  0  0
    1.9380    2.2713   -0.5297 H   0  0  0  0  0  0  0  0  0  0  0  0
    4.0228    1.7888    0.9318 C   0  0  0  0  0  0  0  0  0  0  0  0
    5.1104    1.5855    1.7564 C   0  0  0  0  0  0  0  0  0  0  0  0
    5.1587    2.1666    3.0173 C   0  0  0  0  0  0  0  0  0  0  0  0
    3.0077    3.1683    2.6030 C   0  0  0  0  0  0  0  0  0  0  0  0
    4.1017    2.9738    3.4235 C   0  0  0  0  0  0  0  0  0  0  0  0
    2.1959    3.7825    2.9576 H   0  0  0  0  0  0  0  0  0  0  0  0
    4.1222    3.4338    4.4025 H   0  0  0  0  0  0  0  0  0  0  0  0
    5.9297    0.9640    1.4271 H   0  0  0  0  0  0  0  0  0  0  0  0
    3.9966    1.3212   -0.0423 H   0  0  0  0  0  0  0  0  0  0  0  0
    6.3312    1.9235    3.9244 C   0  0  0  0  0  0  0  0  0  0  0  0
    7.4735    2.7585    3.5288 N   0  0  0  0  0  0  0  0  0  0  0  0
    6.6511    0.8839    3.8251 H   0  0  0  0  0  0  0  0  0  0  0  0
    6.0350    2.0990    4.9652 H   0  0  0  0  0  0  0  0  0  0  0  0
    8.6469    2.5378    4.2934 C   0  0  0  0  0  0  0  0  0  0  0  0
    7.2463    4.1831    3.6780 C   0  0  0  0  0  0  0  0  0  0  0  0
    7.5750    4.4841    5.1546 C   0  0  0  0  0  0  0  0  0  0  0  0
    6.2246    4.4422    3.4141 H   0  0  0  0  0  0  0  0  0  0  0  0
    7.9334    4.7113    3.0109 H   0  0  0  0  0  0  0  0  0  0  0  0
    8.5516    3.4240    5.5299 N   0  0  0  0  0  0  0  0  0  0  0  0
    6.6816    4.3772    5.7730 H   0  0  0  0  0  0  0  0  0  0  0  0
    7.9969    5.4770    5.2930 H   0  0  0  0  0  0  0  0  0  0  0  0
    9.5197    2.8752    3.7224 H   0  0  0  0  0  0  0  0  0  0  0  0
    8.7704    1.4954    4.5816 H   0  0  0  0  0  0  0  0  0  0  0  0
    9.8608    3.8822    6.0510 C   0  0  0  0  0  0  0  0  0  0  0  0
   10.3259    3.0688    7.2530 C   0  0  0  0  0  0  0  0  0  0  0  0
    9.7740    4.9269    6.3421 H   0  0  0  0  0  0  0  0  0  0  0  0
   10.6010    3.8247    5.2473 H   0  0  0  0  0  0  0  0  0  0  0  0
   10.6159    1.6029    6.9356 C   0  0  0  0  0  0  0  0  0  0  0  0
    9.5713    3.1158    8.0391 H   0  0  0  0  0  0  0  0  0  0  0  0
   11.2321    3.5408    7.6365 H   0  0  0  0  0  0  0  0  0  0  0  0
   11.2881    0.9202    8.1208 C   0  0  0  0  0  0  0  0  0  0  0  0
   11.2664    1.5336    6.0594 H   0  0  0  0  0  0  0  0  0  0  0  0
    9.6798    1.0851    6.7220 H   0  0  0  0  0  0  0  0  0  0  0  0
   11.4834   -0.1259    7.8992 H   0  0  0  0  0  0  0  0  0  0  0  0
   10.6442    0.9738    8.9941 H   0  0  0  0  0  0  0  0  0  0  0  0
   12.2325    1.4045    8.3579 H   0  0  0  0  0  0  0  0  0  0  0  0
    8.1012    2.8433    6.2825 H   0  0  0  0  0  0  0  0  0  0  0  0
    1.8017    7.8499   13.6553 C   0  0  0  0  0  0  0  0  0  0  0  0
    1.6129    7.1102   12.5690 C   0  0  0  0  0  0  0  0  0  0  0  0
    1.0621    7.8935   14.4362 H   0  0  0  0  0  0  0  0  0  0  0  0
    2.6910    8.4343   13.8152 H   0  0  0  0  0  0  0  0  0  0  0  0
    2.5315    6.9720   11.4449 C   0  0  0  0  0  0  0  0  0  0  0  0
    0.6923    6.5485   12.4685 H   0  0  0  0  0  0  0  0  0  0  0  0
    2.1284    6.2442   10.3221 C   0  0  0  0  0  0  0  0  0  0  0  0
    2.9548    6.1007    9.2227 C   0  0  0  0  0  0  0  0  0  0  0  0
    4.2174    6.6928    9.2096 C   0  0  0  0  0  0  0  0  0  0  0  0
    3.8121    7.5300   11.4366 C   0  0  0  0  0  0  0  0  0  0  0  0
    4.6396    7.3942   10.3388 C   0  0  0  0  0  0  0  0  0  0  0  0
    4.1750    8.0656   12.2984 H   0  0  0  0  0  0  0  0  0  0  0  0
    5.6302    7.8216   10.3556 H   0  0  0  0  0  0  0  0  0  0  0  0
    2.6371    5.4910    8.3918 H   0  0  0  0  0  0  0  0  0  0  0  0
    1.1579    5.7693   10.3198 H   0  0  0  0  0  0  0  0  0  0  0  0
    5.1342    6.5874    8.0135 C   0  0  0  0  0  0  0  0  0  0  0  0
    4.8455    7.5184    6.9174 N   0  0  0  0  0  0  0  0  0  0  0  0
    5.0876    5.5800    7.5959 H   0  0  0  0  0  0  0  0  0  0  0  0
    6.1538    6.7994    8.3416 H   0  0  0  0  0  0  0  0  0  0  0  0
    4.7289    8.8735    7.2951 C   0  0  0  0  0  0  0  0  0  0  0  0
    3.6459    7.2558    6.1466 C   0  0  0  0  0  0  0  0  0  0  0  0
    2.5396    8.1429    6.7750 C   0  0  0  0  0  0  0  0  0  0  0  0
    3.3934    6.1968    6.1594 H   0  0  0  0  0  0  0  0  0  0  0  0
    3.8264    7.5631    5.1128 H   0  0  0  0  0  0  0  0  0  0  0  0
    3.2627    9.0262    7.7215 N   0  0  0  0  0  0  0  0  0  0  0  0
    1.7976    7.5481    7.3044 H   0  0  0  0  0  0  0  0  0  0  0  0
    2.0462    8.7540    6.0192 H   0  0  0  0  0  0  0  0  0  0  0  0
    4.8690    9.5295    6.4297 H   0  0  0  0  0  0  0  0  0  0  0  0
    5.3921    9.1654    8.1108 H   0  0  0  0  0  0  0  0  0  0  0  0
    2.7470   10.4055    7.8043 C   0  0  0  0  0  0  0  0  0  0  0  0
    3.1462   11.0855    9.1086 C   0  0  0  0  0  0  0  0  0  0  0  0
    1.6559   10.3654    7.7340 H   0  0  0  0  0  0  0  0  0  0  0  0
    3.1344   10.9589    6.9457 H   0  0  0  0  0  0  0  0  0  0  0  0
    2.3321   10.5856   10.3023 C   0  0  0  0  0  0  0  0  0  0  0  0
    2.9890   12.1586    8.9971 H   0  0  0  0  0  0  0  0  0  0  0  0
    4.2071   10.9264    9.3025 H   0  0  0  0  0  0  0  0  0  0  0  0
    2.8780   11.1648   11.6006 C   0  0  0  0  0  0  0  0  0  0  0  0
    2.3763    9.4961   10.3672 H   0  0  0  0  0  0  0  0  0  0  0  0
    1.2829   10.8697   10.1826 H   0  0  0  0  0  0  0  0  0  0  0  0
    2.8000   12.2489   11.5988 H   0  0  0  0  0  0  0  0  0  0  0  0
    3.9256   10.8964   11.7078 H   0  0  0  0  0  0  0  0  0  0  0  0
    2.3227   10.7790   12.4515 H   0  0  0  0  0  0  0  0  0  0  0  0
    3.2395    8.5952    8.6597 H   0  0  0  0  0  0  0  0  0  0  0  0
  1  3  1  0  0  0  0
  1  4  1  0  0  0  0
  1  5  1  0  0  0  0
  2  6  1  0  0  0  0
  2  7  1  0  0  0  0
  2  8  1  0  0  0  0
  1  9  1  0  0  0  0
  2 10  1  0  0  0  0
  9 11  1  0  0  0  0
 10 11  1  0  0  0  0
  9 12  2  0  0  0  0
  9 13  2  0  0  0  0
 10 14  2  0  0  0  0
 10 15  2  0  0  0  0
 16 18  1  0  0  0  0
 16 19  1  0  0  0  0
 16 20  1  0  0  0  0
 17 21  1  0  0  0  0
 17 22  1  0  0  0  0
 17 23  1  0  0  0  0
 16 24  1  0  0  0  0
 17 25  1  0  0  0  0
 24 26  1  0  0  0  0
 25 26  1  0  0  0  0
 24 27  2  0  0  0  0
 24 28  2  0  0  0  0
 25 29  2  0  0  0  0
 25 30  2  0  0  0  0
 31 32  2  0  0  0  0
 31 33  1  0  0  0  0
 31 34  1  0  0  0  0
 32 35  1  0  0  0  0
 32 36  1  0  0  0  0
 35 37  4  0  0  0  0
 37 38  4  0  0  0  0
 38 39  4  0  0  0  0
 35 40  4  0  0  0  0
 39 41  4  0  0  0  0
 40 41  4  0  0  0  0
 40 42  1  0  0  0  0
 41 43  1  0  0  0  0
 38 44  1  0  0  0  0
 37 45  1  0  0  0  0
 39 46  1  0  0  0  0
 46 47  1  0  0  0  0
 46 48  1  0  0  0  0
 46 49  1  0  0  0  0
 47 50  1  0  0  0  0
 47 51  1  0  0  0  0
 51 52  1  0  0  0  0
 51 53  1  0  0  0  0
 51 54  1  0  0  0  0
 50 55  1  0  0  0  0
 52 55  1  0  0  0  0
 52 56  1  0  0  0  0
 52 57  1  0  0  0  0
 50 58  1  0  0  0  0
 50 59  1  0  0  0  0
 55 60  1  0  0  0  0
 60 61  1  0  0  0  0
 60 62  1  0  0  0  0
 60 63  1  0  0  0  0
 61 64  1  0  0  0  0
 61 65  1  0  0  0  0
 61 66  1  0  0  0  0
 64 67  1  0  0  0  0
 64 68  1  0  0  0  0
 64 69  1  0  0  0  0
 67 70  1  0  0  0  0
 67 71  1  0  0  0  0
 67 72  1  0  0  0  0
 55 73  1  0  0  0  0
 74 75  2  0  0  0  0
 74 76  1  0  0  0  0
 74 77  1  0  0  0  0
 75 78  1  0  0  0  0
 75 79  1  0  0  0  0
 78 80  4  0  0  0  0
 80 81  4  0  0  0  0
 81 82  4  0  0  0  0
 78 83  4  0  0  0  0
 82 84  4  0  0  0  0
 83 84  4  0  0  0  0
 83 85  1  0  0  0  0
 84 86  1  0  0  0  0
 81 87  1  0  0  0  0
 80 88  1  0  0  0  0
 82 89  1  0  0  0  0
 89 90  1  0  0  0  0
 89 91  1  0  0  0  0
 89 92  1  0  0  0  0
 90 93  1  0  0  0  0
 90 94  1  0  0  0  0
 94 95  1  0  0  0  0
 94 96  1  0  0  0  0
 94 97  1  0  0  0  0
 93 98  1  0  0  0  0
 95 98  1  0  0  0  0
 95 99  1  0  0  0  0
 95100  1  0  0  0  0
 93101  1  0  0  0  0
 93102  1  0  0  0  0
 98103  1  0  0  0  0
103104  1  0  0  0  0
103105  1  0  0  0  0
103106  1  0  0  0  0
104107  1  0  0  0  0
104108  1  0  0  0  0
104109  1  0  0  0  0
107110  1  0  0  0  0
107111  1  0  0  0  0
107112  1  0  0  0  0
110113  1  0  0  0  0
110114  1  0  0  0  0
110115  1  0  0  0  0
 98116  1  0  0  0  0
M  END
