 xtb: 6.7.1 (edcfbbe)
          10212513523D

116116  0     0  0            999 V2000
    3.3296    4.6848   -0.9501 C   0  0  0  0  0  0  0  0  0  0  0  0
    7.6873    3.2863   -0.6933 C   0  0  0  0  0  0  0  0  0  0  0  0
    2.0923    4.6336   -0.4422 F   0  0  0  0  0  0  0  0  0  0  0  0
    3.2381    5.2731   -2.1360 F   0  0  0  0  0  0  0  0  0  0  0  0
    3.7365    3.4291   -1.1191 F   0  0  0  0  0  0  0  0  0  0  0  0
    6.9466    2.1950   -0.5652 F   0  0  0  0  0  0  0  0  0  0  0  0
    8.5258    3.0981   -1.7165 F   0  0  0  0  0  0  0  0  0  0  0  0
    8.4377    3.4127    0.4068 F   0  0  0  0  0  0  0  0  0  0  0  0
    4.4637    5.6241    0.2341 S   0  0  0  0  0  0  0  0  0  0  0  0
    6.6702    4.8511   -0.9134 S   0  0  0  0  0  0  0  0  0  0  0  0
    5.7622    4.7366    0.3709 N   0  0  0  0  0  0  0  0  0  0  0  0
    4.7348    6.8832   -0.4065 O   0  0  0  0  0  0  0  0  0  0  0  0
    3.7486    5.6894    1.4696 O   0  0  0  0  0  0  0  0  0  0  0  0
    5.9737    4.7557   -2.1505 O   0  0  0  0  0  0  0  0  0  0  0  0
    7.6846    5.8769   -0.8142 O   0  0  0  0  0  0  0  0  0  0  0  0
    4.5744    3.3965    6.1781 C   0  0  0  0  0  0  0  0  0  0  0  0
    2.8479    1.7690   10.2554 C   0  0  0  0  0  0  0  0  0  0  0  0
    5.4980    4.1411    5.5611 F   0  0  0  0  0  0  0  0  0  0  0  0
    4.8092    2.1408    5.8607 F   0  0  0  0  0  0  0  0  0  0  0  0
    3.3831    3.7740    5.7370 F   0  0  0  0  0  0  0  0  0  0  0  0
    1.8702    0.9678   10.6652 F   0  0  0  0  0  0  0  0  0  0  0  0
    3.9749    1.0688   10.2459 F   0  0  0  0  0  0  0  0  0  0  0  0
    2.9907    2.7327   11.1895 F   0  0  0  0  0  0  0  0  0  0  0  0
    4.7298    3.7706    8.0109 S   0  0  0  0  0  0  0  0  0  0  0  0
    2.4254    2.6086    8.6082 S   0  0  0  0  0  0  0  0  0  0  0  0
    3.3159    3.9241    8.6798 N   0  0  0  0  0  0  0  0  0  0  0  0
    5.5526    2.7691    8.6181 O   0  0  0  0  0  0  0  0  0  0  0  0
    5.3256    5.0995    8.0447 O   0  0  0  0  0  0  0  0  0  0  0  0
    1.0448    2.9188    8.7508 O   0  0  0  0  0  0  0  0  0  0  0  0
    2.8762    1.7435    7.5712 O   0  0  0  0  0  0  0  0  0  0  0  0
   11.8978    9.2635    8.3641 C   0  0  0  0  0  0  0  0  0  0  0  0
   10.7998    8.6272    7.9745 C   0  0  0  0  0  0  0  0  0  0  0  0
   12.3355   10.0448    7.7662 H   0  0  0  0  0  0  0  0  0  0  0  0
   12.4070    9.0383    9.2849 H   0  0  0  0  0  0  0  0  0  0  0  0
   10.1057    7.5610    8.6855 C   0  0  0  0  0  0  0  0  0  0  0  0
   10.3387    8.9059    7.0339 H   0  0  0  0  0  0  0  0  0  0  0  0
   10.5239    7.0684    9.9227 C   0  0  0  0  0  0  0  0  0  0  0  0
    9.8230    6.0605   10.5540 C   0  0  0  0  0  0  0  0  0  0  0  0
    8.6762    5.5146    9.9822 C   0  0  0  0  0  0  0  0  0  0  0  0
    8.9664    6.9960    8.1097 C   0  0  0  0  0  0  0  0  0  0  0  0
    8.2593    5.9938    8.7456 C   0  0  0  0  0  0  0  0  0  0  0  0
    8.6324    7.3367    7.1411 H   0  0  0  0  0  0  0  0  0  0  0  0
    7.3852    5.5757    8.2709 H   0  0  0  0  0  0  0  0  0  0  0  0
   10.1741    5.6821   11.5041 H   0  0  0  0  0  0  0  0  0  0  0  0
   11.4074    7.4702   10.3936 H   0  0  0  0  0  0  0  0  0  0  0  0
    7.9109    4.4329   10.6973 C   0  0  0  0  0  0  0  0  0  0  0  0
    6.8545    4.9080   11.6064 N   0  0  0  0  0  0  0  0  0  0  0  0
    8.6087    3.8525   11.3117 H   0  0  0  0  0  0  0  0  0  0  0  0
    7.4557    3.7600    9.9680 H   0  0  0  0  0  0  0  0  0  0  0  0
    5.5089    4.6572   11.2561 C   0  0  0  0  0  0  0  0  0  0  0  0
    6.8580    6.2948   12.0042 C   0  0  0  0  0  0  0  0  0  0  0  0
    5.9091    6.9966   11.0048 C   0  0  0  0  0  0  0  0  0  0  0  0
    7.8602    6.7155   11.9914 H   0  0  0  0  0  0  0  0  0  0  0  0
    6.4543    6.3660   13.0190 H   0  0  0  0  0  0  0  0  0  0  0  0
    4.9828    5.9260   10.5688 N   0  0  0  0  0  0  0  0  0  0  0  0
    6.4669    7.3732   10.1477 H   0  0  0  0  0  0  0  0  0  0  0  0
    5.3612    7.8104   11.4753 H   0  0  0  0  0  0  0  0  0  0  0  0
    4.9025    4.5259   12.1590 H   0  0  0  0  0  0  0  0  0  0  0  0
    5.3913    3.7950   10.6025 H   0  0  0  0  0  0  0  0  0  0  0  0
    3.5554    6.1650   10.8607 C   0  0  0  0  0  0  0  0  0  0  0  0
    2.9738    7.3717   10.1305 C   0  0  0  0  0  0  0  0  0  0  0  0
    3.4517    6.2927   11.9425 H   0  0  0  0  0  0  0  0  0  0  0  0
    3.0142    5.2719   10.5424 H   0  0  0  0  0  0  0  0  0  0  0  0
    2.9071    7.1902    8.6152 C   0  0  0  0  0  0  0  0  0  0  0  0
    3.5341    8.2797   10.3672 H   0  0  0  0  0  0  0  0  0  0  0  0
    1.9588    7.5109   10.5084 H   0  0  0  0  0  0  0  0  0  0  0  0
    2.1815    8.3627    7.9638 C   0  0  0  0  0  0  0  0  0  0  0  0
    2.3915    6.2563    8.3908 H   0  0  0  0  0  0  0  0  0  0  0  0
    3.9120    7.1077    8.2003 H   0  0  0  0  0  0  0  0  0  0  0  0
    1.1597    8.4294    8.3290 H   0  0  0  0  0  0  0  0  0  0  0  0
    2.1513    8.2408    6.8856 H   0  0  0  0  0  0  0  0  0  0  0  0
    2.6866    9.3012    8.1867 H   0  0  0  0  0  0  0  0  0  0  0  0
    5.0715    5.7518    9.5373 H   0  0  0  0  0  0  0  0  0  0  0  0
    3.7058    6.7013    4.5814 C   0  0  0  0  0  0  0  0  0  0  0  0
    4.8513    7.1471    5.0824 C   0  0  0  0  0  0  0  0  0  0  0  0
    2.7880    6.7782    5.1395 H   0  0  0  0  0  0  0  0  0  0  0  0
    3.6322    6.2566    3.6036 H   0  0  0  0  0  0  0  0  0  0  0  0
    6.1451    7.0656    4.4172 C   0  0  0  0  0  0  0  0  0  0  0  0
    4.8721    7.6230    6.0564 H   0  0  0  0  0  0  0  0  0  0  0  0
    7.2047    7.8561    4.8676 C   0  0  0  0  0  0  0  0  0  0  0  0
    8.4462    7.7993    4.2633 C   0  0  0  0  0  0  0  0  0  0  0  0
    8.6705    6.9532    3.1804 C   0  0  0  0  0  0  0  0  0  0  0  0
    6.3812    6.2010    3.3474 C   0  0  0  0  0  0  0  0  0  0  0  0
    7.6223    6.1495    2.7408 C   0  0  0  0  0  0  0  0  0  0  0  0
    5.5981    5.5663    2.9713 H   0  0  0  0  0  0  0  0  0  0  0  0
    7.7635    5.4741    1.9110 H   0  0  0  0  0  0  0  0  0  0  0  0
    9.2562    8.4072    4.6467 H   0  0  0  0  0  0  0  0  0  0  0  0
    7.0446    8.5277    5.7011 H   0  0  0  0  0  0  0  0  0  0  0  0
   10.0065    6.9081    2.4837 C   0  0  0  0  0  0  0  0  0  0  0  0
   10.2538    7.9452    1.4802 N   0  0  0  0  0  0  0  0  0  0  0  0
   10.1121    5.9528    1.9677 H   0  0  0  0  0  0  0  0  0  0  0  0
   10.8170    6.9946    3.2124 H   0  0  0  0  0  0  0  0  0  0  0  0
    9.4628    7.9575    0.3101 C   0  0  0  0  0  0  0  0  0  0  0  0
   10.2760    9.3178    1.9216 C   0  0  0  0  0  0  0  0  0  0  0  0
    8.8415    9.8297    1.6745 C   0  0  0  0  0  0  0  0  0  0  0  0
   10.9904    9.8764    1.3071 H   0  0  0  0  0  0  0  0  0  0  0  0
   10.5741    9.3991    2.9634 H   0  0  0  0  0  0  0  0  0  0  0  0
    8.3862    9.0601    0.4919 N   0  0  0  0  0  0  0  0  0  0  0  0
    8.8022   10.9015    1.4912 H   0  0  0  0  0  0  0  0  0  0  0  0
    8.2069    9.5723    2.5221 H   0  0  0  0  0  0  0  0  0  0  0  0
    8.9821    7.0041    0.0819 H   0  0  0  0  0  0  0  0  0  0  0  0
   10.0701    8.2765   -0.5438 H   0  0  0  0  0  0  0  0  0  0  0  0
    6.9980    8.5388    0.5676 C   0  0  0  0  0  0  0  0  0  0  0  0
    5.9223    9.6075    0.4379 C   0  0  0  0  0  0  0  0  0  0  0  0
    6.8798    7.9913    1.5016 H   0  0  0  0  0  0  0  0  0  0  0  0
    6.8729    7.8195   -0.2436 H   0  0  0  0  0  0  0  0  0  0  0  0
    5.6097   10.3896    1.7143 C   0  0  0  0  0  0  0  0  0  0  0  0
    5.0258    9.0585    0.1441 H   0  0  0  0  0  0  0  0  0  0  0  0
    6.1650   10.2966   -0.3755 H   0  0  0  0  0  0  0  0  0  0  0  0
    4.2901   11.1388    1.5733 C   0  0  0  0  0  0  0  0  0  0  0  0
    6.3996   11.1105    1.9399 H   0  0  0  0  0  0  0  0  0  0  0  0
    5.5327    9.6918    2.5505 H   0  0  0  0  0  0  0  0  0  0  0  0
    4.3281   11.8271    0.7317 H   0  0  0  0  0  0  0  0  0  0  0  0
    4.0738   11.7082    2.4736 H   0  0  0  0  0  0  0  0  0  0  0  0
    3.4796   10.4358    1.4057 H   0  0  0  0  0  0  0  0  0  0  0  0
    8.4136    9.6519   -0.3399 H   0  0  0  0  0  0  0  0  0  0  0  0
  1  3  1  0  0  0  0
  1  4  1  0  0  0  0
  1  5  1  0  0  0  0
  2  6  1  0  0  0  0
  2  7  1  0  0  0  0
  2  8  1  0  0  0  0
  1  9  1  0  0  0  0
  2 10  1  0  0  0  0
  9 11  1  0  0  0  0
 10 11  1  0  0  0  0
  9 12  2  0  0  0  0
  9 13  2  0  0  0  0
 10 14  2  0  0  0  0
 10 15  2  0  0  0  0
 16 18  1  0  0  0  0
 16 19  1  0  0  0  0
 16 20  1  0  0  0  0
 17 21  1  0  0  0  0
 17 22  1  0  0  0  0
 17 23  1  0  0  0  0
 16 24  1  0  0  0  0
 17 25  1  0  0  0  0
 24 26  1  0  0  0  0
 25 26  1  0  0  0  0
 24 27  2  0  0  0  0
 24 28  2  0  0  0  0
 25 29  2  0  0  0  0
 25 30  2  0  0  0  0
 31 32  2  0  0  0  0
 31 33  1  0  0  0  0
 31 34  1  0  0  0  0
 32 35  1  0  0  0  0
 32 36  1  0  0  0  0
 35 37  4  0  0  0  0
 37 38  4  0  0  0  0
 38 39  4  0  0  0  0
 35 40  4  0  0  0  0
 39 41  4  0  0  0  0
 40 41  4  0  0  0  0
 40 42  1  0  0  0  0
 41 43  1  0  0  0  0
 38 44  1  0  0  0  0
 37 45  1  0  0  0  0
 39 46  1  0  0  0  0
 46 47  1  0  0  0  0
 46 48  1  0  0  0  0
 46 49  1  0  0  0  0
 47 50  1  0  0  0  0
 47 51  1  0  0  0  0
 51 52  1  0  0  0  0
 51 53  1  0  0  0  0
 51 54  1  0  0  0  0
 50 55  1  0  0  0  0
 52 55  1  0  0  0  0
 52 56  1  0  0  0  0
 52 57  1  0  0  0  0
 50 58  1  0  0  0  0
 50 59  1  0  0  0  0
 55 60  1  0  0  0  0
 60 61  1  0  0  0  0
 60 62  1  0  0  0  0
 60 63  1  0  0  0  0
 61 64  1  0  0  0  0
 61 65  1  0  0  0  0
 61 66  1  0  0  0  0
 64 67  1  0  0  0  0
 64 68  1  0  0  0  0
 64 69  1  0  0  0  0
 67 70  1  0  0  0  0
 67 71  1  0  0  0  0
 67 72  1  0  0  0  0
 55 73  1  0  0  0  0
 74 75  2  0  0  0  0
 74 76  1  0  0  0  0
 74 77  1  0  0  0  0
 75 78  1  0  0  0  0
 75 79  1  0  0  0  0
 78 80  4  0  0  0  0
 80 81  4  0  0  0  0
 81 82  4  0  0  0  0
 78 83  4  0  0  0  0
 82 84  4  0  0  0  0
 83 84  4  0  0  0  0
 83 85  1  0  0  0  0
 84 86  1  0  0  0  0
 81 87  1  0  0  0  0
 80 88  1  0  0  0  0
 82 89  1  0  0  0  0
 89 90  1  0  0  0  0
 89 91  1  0  0  0  0
 89 92  1  0  0  0  0
 90 93  1  0  0  0  0
 90 94  1  0  0  0  0
 94 95  1  0  0  0  0
 94 96  1  0  0  0  0
 94 97  1  0  0  0  0
 93 98  1  0  0  0  0
 95 98  1  0  0  0  0
 95 99  1  0  0  0  0
 95100  1  0  0  0  0
 93101  1  0  0  0  0
 93102  1  0  0  0  0
 98103  1  0  0  0  0
103104  1  0  0  0  0
103105  1  0  0  0  0
103106  1  0  0  0  0
104107  1  0  0  0  0
104108  1  0  0  0  0
104109  1  0  0  0  0
107110  1  0  0  0  0
107111  1  0  0  0  0
107112  1  0  0  0  0
110113  1  0  0  0  0
110114  1  0  0  0  0
110115  1  0  0  0  0
 98116  1  0  0  0  0
M  END
