 xtb: 6.7.1 (edcfbbe)
          10212513423D

116116  0     0  0            999 V2000
    2.7522    5.8115    2.1117 C   0  0  0  0  0  0  0  0  0  0  0  0
    4.5618    2.3787    4.5690 C   0  0  0  0  0  0  0  0  0  0  0  0
    3.4632    5.3352    1.1020 F   0  0  0  0  0  0  0  0  0  0  0  0
    1.6693    6.3959    1.5908 F   0  0  0  0  0  0  0  0  0  0  0  0
    3.4653    6.7957    2.6924 F   0  0  0  0  0  0  0  0  0  0  0  0
    3.4218    1.7809    4.8627 F   0  0  0  0  0  0  0  0  0  0  0  0
    4.9656    1.9327    3.3794 F   0  0  0  0  0  0  0  0  0  0  0  0
    5.4937    1.9848    5.4405 F   0  0  0  0  0  0  0  0  0  0  0  0
    2.2484    4.5141    3.4157 S   0  0  0  0  0  0  0  0  0  0  0  0
    4.5832    4.2584    4.5159 S   0  0  0  0  0  0  0  0  0  0  0  0
    3.1450    4.8915    4.6623 N   0  0  0  0  0  0  0  0  0  0  0  0
    0.8853    4.8548    3.6843 O   0  0  0  0  0  0  0  0  0  0  0  0
    2.5610    3.2491    2.8480 O   0  0  0  0  0  0  0  0  0  0  0  0
    5.0864    4.5428    3.1908 O   0  0  0  0  0  0  0  0  0  0  0  0
    5.4897    4.7362    5.5217 O   0  0  0  0  0  0  0  0  0  0  0  0
    3.5484    1.0381    7.8660 C   0  0  0  0  0  0  0  0  0  0  0  0
    2.5104    3.2436   11.6806 C   0  0  0  0  0  0  0  0  0  0  0  0
    3.4580    0.5200    9.0885 F   0  0  0  0  0  0  0  0  0  0  0  0
    2.3277    0.9644    7.3253 F   0  0  0  0  0  0  0  0  0  0  0  0
    4.3559    0.2589    7.1527 F   0  0  0  0  0  0  0  0  0  0  0  0
    1.7209    4.2997   11.4411 F   0  0  0  0  0  0  0  0  0  0  0  0
    1.7964    2.1501   11.4191 F   0  0  0  0  0  0  0  0  0  0  0  0
    2.7893    3.2466   12.9841 F   0  0  0  0  0  0  0  0  0  0  0  0
    4.0583    2.8564    7.9499 S   0  0  0  0  0  0  0  0  0  0  0  0
    4.0450    3.3394   10.5857 S   0  0  0  0  0  0  0  0  0  0  0  0
    3.2447    3.3307    9.2057 N   0  0  0  0  0  0  0  0  0  0  0  0
    5.4693    2.9311    8.0929 O   0  0  0  0  0  0  0  0  0  0  0  0
    3.4693    3.4222    6.7520 O   0  0  0  0  0  0  0  0  0  0  0  0
    4.8105    2.1744   10.8532 O   0  0  0  0  0  0  0  0  0  0  0  0
    4.6034    4.6226   10.8807 O   0  0  0  0  0  0  0  0  0  0  0  0
    8.7559   10.5427   10.7040 C   0  0  0  0  0  0  0  0  0  0  0  0
    8.2332   10.3153    9.5049 C   0  0  0  0  0  0  0  0  0  0  0  0
    9.4895   11.3154   10.8588 H   0  0  0  0  0  0  0  0  0  0  0  0
    8.4817    9.9743   11.5754 H   0  0  0  0  0  0  0  0  0  0  0  0
    7.2371    9.3068    9.1641 C   0  0  0  0  0  0  0  0  0  0  0  0
    8.5591   10.9257    8.6703 H   0  0  0  0  0  0  0  0  0  0  0  0
    6.8308    9.1784    7.8352 C   0  0  0  0  0  0  0  0  0  0  0  0
    5.8884    8.2369    7.4646 C   0  0  0  0  0  0  0  0  0  0  0  0
    5.3222    7.3929    8.4110 C   0  0  0  0  0  0  0  0  0  0  0  0
    6.6649    8.4500   10.1070 C   0  0  0  0  0  0  0  0  0  0  0  0
    5.7245    7.5106    9.7374 C   0  0  0  0  0  0  0  0  0  0  0  0
    6.9620    8.5176   11.1412 H   0  0  0  0  0  0  0  0  0  0  0  0
    5.3042    6.8352   10.4663 H   0  0  0  0  0  0  0  0  0  0  0  0
    5.5926    8.1440    6.4269 H   0  0  0  0  0  0  0  0  0  0  0  0
    7.2612    9.8330    7.0875 H   0  0  0  0  0  0  0  0  0  0  0  0
    4.2914    6.3655    8.0395 C   0  0  0  0  0  0  0  0  0  0  0  0
    2.9457    6.8978    8.2826 N   0  0  0  0  0  0  0  0  0  0  0  0
    4.4253    5.5024    8.6921 H   0  0  0  0  0  0  0  0  0  0  0  0
    4.4271    6.0322    7.0033 H   0  0  0  0  0  0  0  0  0  0  0  0
    1.9267    5.9122    8.3477 C   0  0  0  0  0  0  0  0  0  0  0  0
    2.4708    7.8094    7.2624 C   0  0  0  0  0  0  0  0  0  0  0  0
    1.7340    6.9259    6.2259 C   0  0  0  0  0  0  0  0  0  0  0  0
    3.2945    8.3720    6.8306 H   0  0  0  0  0  0  0  0  0  0  0  0
    1.7763    8.5152    7.7274 H   0  0  0  0  0  0  0  0  0  0  0  0
    1.5531    5.6185    6.9066 N   0  0  0  0  0  0  0  0  0  0  0  0
    2.3150    6.7665    5.3197 H   0  0  0  0  0  0  0  0  0  0  0  0
    0.7601    7.3387    5.9636 H   0  0  0  0  0  0  0  0  0  0  0  0
    1.0384    6.3328    8.8315 H   0  0  0  0  0  0  0  0  0  0  0  0
    2.2623    5.0110    8.8561 H   0  0  0  0  0  0  0  0  0  0  0  0
    0.2179    5.0341    6.6723 C   0  0  0  0  0  0  0  0  0  0  0  0
    0.1064    3.5535    7.0245 C   0  0  0  0  0  0  0  0  0  0  0  0
    0.0300    5.1230    5.5993 H   0  0  0  0  0  0  0  0  0  0  0  0
   -0.5142    5.6305    7.2229 H   0  0  0  0  0  0  0  0  0  0  0  0
   -0.0285    3.2036    8.5088 C   0  0  0  0  0  0  0  0  0  0  0  0
    0.9763    3.0401    6.6120 H   0  0  0  0  0  0  0  0  0  0  0  0
   -0.7737    3.1745    6.5015 H   0  0  0  0  0  0  0  0  0  0  0  0
   -1.2003    3.8969    9.1973 C   0  0  0  0  0  0  0  0  0  0  0  0
    0.8989    3.4181    9.0347 H   0  0  0  0  0  0  0  0  0  0  0  0
   -0.1808    2.1255    8.5702 H   0  0  0  0  0  0  0  0  0  0  0  0
   -2.1213    3.7353    8.6406 H   0  0  0  0  0  0  0  0  0  0  0  0
   -1.0368    4.9669    9.2975 H   0  0  0  0  0  0  0  0  0  0  0  0
   -1.3297    3.4938   10.1974 H   0  0  0  0  0  0  0  0  0  0  0  0
    2.2605    4.9526    6.5309 H   0  0  0  0  0  0  0  0  0  0  0  0
    9.6972    2.2710   -0.8190 C   0  0  0  0  0  0  0  0  0  0  0  0
    8.7846    2.5482    0.1046 C   0  0  0  0  0  0  0  0  0  0  0  0
    9.4120    1.9371   -1.8014 H   0  0  0  0  0  0  0  0  0  0  0  0
   10.7561    2.3536   -0.6423 H   0  0  0  0  0  0  0  0  0  0  0  0
    9.0372    3.0018    1.4670 C   0  0  0  0  0  0  0  0  0  0  0  0
    7.7359    2.4280   -0.1347 H   0  0  0  0  0  0  0  0  0  0  0  0
   10.3080    3.3424    1.9349 C   0  0  0  0  0  0  0  0  0  0  0  0
   10.4921    3.7893    3.2297 C   0  0  0  0  0  0  0  0  0  0  0  0
    9.4164    3.9075    4.1040 C   0  0  0  0  0  0  0  0  0  0  0  0
    7.9622    3.0985    2.3548 C   0  0  0  0  0  0  0  0  0  0  0  0
    8.1492    3.5383    3.6527 C   0  0  0  0  0  0  0  0  0  0  0  0
    6.9683    2.8314    2.0314 H   0  0  0  0  0  0  0  0  0  0  0  0
    7.3074    3.5671    4.3303 H   0  0  0  0  0  0  0  0  0  0  0  0
   11.4891    4.0363    3.5680 H   0  0  0  0  0  0  0  0  0  0  0  0
   11.1623    3.2626    1.2809 H   0  0  0  0  0  0  0  0  0  0  0  0
    9.5818    4.4987    5.4814 C   0  0  0  0  0  0  0  0  0  0  0  0
    9.3220    5.9391    5.5401 N   0  0  0  0  0  0  0  0  0  0  0  0
   10.6033    4.3516    5.8405 H   0  0  0  0  0  0  0  0  0  0  0  0
    8.8945    4.0243    6.1832 H   0  0  0  0  0  0  0  0  0  0  0  0
    7.9850    6.3537    5.3433 C   0  0  0  0  0  0  0  0  0  0  0  0
   10.0779    6.7562    4.6170 C   0  0  0  0  0  0  0  0  0  0  0  0
    9.1638    6.9486    3.3778 C   0  0  0  0  0  0  0  0  0  0  0  0
   11.0272    6.2918    4.3622 H   0  0  0  0  0  0  0  0  0  0  0  0
   10.2780    7.7214    5.0902 H   0  0  0  0  0  0  0  0  0  0  0  0
    7.8275    6.4898    3.8236 N   0  0  0  0  0  0  0  0  0  0  0  0
    9.5064    6.3582    2.5299 H   0  0  0  0  0  0  0  0  0  0  0  0
    9.1110    7.9972    3.0896 H   0  0  0  0  0  0  0  0  0  0  0  0
    7.8453    7.3555    5.7626 H   0  0  0  0  0  0  0  0  0  0  0  0
    7.2353    5.6721    5.7476 H   0  0  0  0  0  0  0  0  0  0  0  0
    6.6884    7.3173    3.3911 C   0  0  0  0  0  0  0  0  0  0  0  0
    6.6357    7.5158    1.8761 C   0  0  0  0  0  0  0  0  0  0  0  0
    6.7560    8.2853    3.8959 H   0  0  0  0  0  0  0  0  0  0  0  0
    5.7848    6.7986    3.7164 H   0  0  0  0  0  0  0  0  0  0  0  0
    6.6968    6.2089    1.0831 C   0  0  0  0  0  0  0  0  0  0  0  0
    7.4318    8.1874    1.5440 H   0  0  0  0  0  0  0  0  0  0  0  0
    5.6867    8.0069    1.6599 H   0  0  0  0  0  0  0  0  0  0  0  0
    6.3160    6.4347   -0.3756 C   0  0  0  0  0  0  0  0  0  0  0  0
    6.0121    5.4881    1.5278 H   0  0  0  0  0  0  0  0  0  0  0  0
    7.7064    5.7899    1.1160 H   0  0  0  0  0  0  0  0  0  0  0  0
    6.3818    5.5016   -0.9272 H   0  0  0  0  0  0  0  0  0  0  0  0
    6.9795    7.1606   -0.8439 H   0  0  0  0  0  0  0  0  0  0  0  0
    5.2953    6.7989   -0.4503 H   0  0  0  0  0  0  0  0  0  0  0  0
    7.6530    5.5290    3.4773 H   0  0  0  0  0  0  0  0  0  0  0  0
  1  3  1  0  0  0  0
  1  4  1  0  0  0  0
  1  5  1  0  0  0  0
  2  6  1  0  0  0  0
  2  7  1  0  0  0  0
  2  8  1  0  0  0  0
  1  9  1  0  0  0  0
  2 10  1  0  0  0  0
  9 11  1  0  0  0  0
 10 11  1  0  0  0  0
  9 12  2  0  0  0  0
  9 13  2  0  0  0  0
 10 14  2  0  0  0  0
 10 15  2  0  0  0  0
 16 18  1  0  0  0  0
 16 19  1  0  0  0  0
 16 20  1  0  0  0  0
 17 21  1  0  0  0  0
 17 22  1  0  0  0  0
 17 23  1  0  0  0  0
 16 24  1  0  0  0  0
 17 25  1  0  0  0  0
 24 26  1  0  0  0  0
 25 26  1  0  0  0  0
 24 27  2  0  0  0  0
 24 28  2  0  0  0  0
 25 29  2  0  0  0  0
 25 30  2  0  0  0  0
 31 32  2  0  0  0  0
 31 33  1  0  0  0  0
 31 34  1  0  0  0  0
 32 35  1  0  0  0  0
 32 36  1  0  0  0  0
 35 37  4  0  0  0  0
 37 38  4  0  0  0  0
 38 39  4  0  0  0  0
 35 40  4  0  0  0  0
 39 41  4  0  0  0  0
 40 41  4  0  0  0  0
 40 42  1  0  0  0  0
 41 43  1  0  0  0  0
 38 44  1  0  0  0  0
 37 45  1  0  0  0  0
 39 46  1  0  0  0  0
 46 47  1  0  0  0  0
 46 48  1  0  0  0  0
 46 49  1  0  0  0  0
 47 50  1  0  0  0  0
 47 51  1  0  0  0  0
 51 52  1  0  0  0  0
 51 53  1  0  0  0  0
 51 54  1  0  0  0  0
 50 55  1  0  0  0  0
 52 55  1  0  0  0  0
 52 56  1  0  0  0  0
 52 57  1  0  0  0  0
 50 58  1  0  0  0  0
 50 59  1  0  0  0  0
 55 60  1  0  0  0  0
 60 61  1  0  0  0  0
 60 62  1  0  0  0  0
 60 63  1  0  0  0  0
 61 64  1  0  0  0  0
 61 65  1  0  0  0  0
 61 66  1  0  0  0  0
 64 67  1  0  0  0  0
 64 68  1  0  0  0  0
 64 69  1  0  0  0  0
 67 70  1  0  0  0  0
 67 71  1  0  0  0  0
 67 72  1  0  0  0  0
 55 73  1  0  0  0  0
 74 75  2  0  0  0  0
 74 76  1  0  0  0  0
 74 77  1  0  0  0  0
 75 78  1  0  0  0  0
 75 79  1  0  0  0  0
 78 80  4  0  0  0  0
 80 81  4  0  0  0  0
 81 82  4  0  0  0  0
 78 83  4  0  0  0  0
 82 84  4  0  0  0  0
 83 84  4  0  0  0  0
 83 85  1  0  0  0  0
 84 86  1  0  0  0  0
 81 87  1  0  0  0  0
 80 88  1  0  0  0  0
 82 89  1  0  0  0  0
 89 90  1  0  0  0  0
 89 91  1  0  0  0  0
 89 92  1  0  0  0  0
 90 93  1  0  0  0  0
 90 94  1  0  0  0  0
 94 95  1  0  0  0  0
 94 96  1  0  0  0  0
 94 97  1  0  0  0  0
 93 98  1  0  0  0  0
 95 98  1  0  0  0  0
 95 99  1  0  0  0  0
 95100  1  0  0  0  0
 93101  1  0  0  0  0
 93102  1  0  0  0  0
 98103  1  0  0  0  0
103104  1  0  0  0  0
103105  1  0  0  0  0
103106  1  0  0  0  0
104107  1  0  0  0  0
104108  1  0  0  0  0
104109  1  0  0  0  0
107110  1  0  0  0  0
107111  1  0  0  0  0
107112  1  0  0  0  0
110113  1  0  0  0  0
110114  1  0  0  0  0
110115  1  0  0  0  0
 98116  1  0  0  0  0
M  END
