 xtb: 6.7.1 (edcfbbe)
          10212513503D

116116  0     0  0            999 V2000
    2.8634    8.0119    2.2874 C   0  0  0  0  0  0  0  0  0  0  0  0
    5.9661   10.9830    2.9474 C   0  0  0  0  0  0  0  0  0  0  0  0
    2.2488    9.1625    2.0966 F   0  0  0  0  0  0  0  0  0  0  0  0
    3.1836    7.4529    1.1264 F   0  0  0  0  0  0  0  0  0  0  0  0
    1.9769    7.1969    2.8836 F   0  0  0  0  0  0  0  0  0  0  0  0
    6.5866   10.5806    4.0580 F   0  0  0  0  0  0  0  0  0  0  0  0
    6.7475   11.9060    2.3766 F   0  0  0  0  0  0  0  0  0  0  0  0
    4.8302   11.5731    3.2728 F   0  0  0  0  0  0  0  0  0  0  0  0
    4.3560    8.0980    3.4428 S   0  0  0  0  0  0  0  0  0  0  0  0
    5.7442    9.5556    1.7321 S   0  0  0  0  0  0  0  0  0  0  0  0
    5.6719    8.2254    2.5934 N   0  0  0  0  0  0  0  0  0  0  0  0
    4.1221    9.1975    4.3259 O   0  0  0  0  0  0  0  0  0  0  0  0
    4.3180    6.7997    4.0848 O   0  0  0  0  0  0  0  0  0  0  0  0
    6.9668    9.5433    0.9844 O   0  0  0  0  0  0  0  0  0  0  0  0
    4.5210    9.8241    1.0557 O   0  0  0  0  0  0  0  0  0  0  0  0
   10.9355    5.3105    8.4355 C   0  0  0  0  0  0  0  0  0  0  0  0
    7.2412    2.5487    7.0039 C   0  0  0  0  0  0  0  0  0  0  0  0
   11.6203    5.2058    9.5727 F   0  0  0  0  0  0  0  0  0  0  0  0
   11.7793    5.7892    7.5089 F   0  0  0  0  0  0  0  0  0  0  0  0
    9.9964    6.2405    8.6288 F   0  0  0  0  0  0  0  0  0  0  0  0
    6.0957    1.9440    7.3529 F   0  0  0  0  0  0  0  0  0  0  0  0
    7.0606    2.9744    5.7472 F   0  0  0  0  0  0  0  0  0  0  0  0
    8.1868    1.6163    6.9956 F   0  0  0  0  0  0  0  0  0  0  0  0
   10.2097    3.6332    7.9372 S   0  0  0  0  0  0  0  0  0  0  0  0
    7.6124    3.9798    8.2058 S   0  0  0  0  0  0  0  0  0  0  0  0
    8.9516    3.5559    8.8868 N   0  0  0  0  0  0  0  0  0  0  0  0
    9.8749    3.7532    6.5469 O   0  0  0  0  0  0  0  0  0  0  0  0
   11.2392    2.7167    8.2893 O   0  0  0  0  0  0  0  0  0  0  0  0
    6.5015    3.9271    9.1122 O   0  0  0  0  0  0  0  0  0  0  0  0
    7.6457    5.1521    7.3773 O   0  0  0  0  0  0  0  0  0  0  0  0
    8.9505    9.6605    7.8150 C   0  0  0  0  0  0  0  0  0  0  0  0
    8.2275    9.3486    6.7476 C   0  0  0  0  0  0  0  0  0  0  0  0
    8.7654   10.5594    8.3776 H   0  0  0  0  0  0  0  0  0  0  0  0
    9.7325    9.0198    8.1831 H   0  0  0  0  0  0  0  0  0  0  0  0
    8.3997    8.1419    5.9460 C   0  0  0  0  0  0  0  0  0  0  0  0
    7.4158    9.9907    6.4319 H   0  0  0  0  0  0  0  0  0  0  0  0
    7.3190    7.6398    5.2224 C   0  0  0  0  0  0  0  0  0  0  0  0
    7.4240    6.4611    4.5108 C   0  0  0  0  0  0  0  0  0  0  0  0
    8.6294    5.7714    4.4543 C   0  0  0  0  0  0  0  0  0  0  0  0
    9.6113    7.4549    5.8782 C   0  0  0  0  0  0  0  0  0  0  0  0
    9.7284    6.2983    5.1333 C   0  0  0  0  0  0  0  0  0  0  0  0
   10.4694    7.8352    6.4090 H   0  0  0  0  0  0  0  0  0  0  0  0
   10.6665    5.7640    5.1251 H   0  0  0  0  0  0  0  0  0  0  0  0
    6.5502    6.0817    4.0055 H   0  0  0  0  0  0  0  0  0  0  0  0
    6.3794    8.1720    5.2192 H   0  0  0  0  0  0  0  0  0  0  0  0
    8.7656    4.5059    3.6475 C   0  0  0  0  0  0  0  0  0  0  0  0
    9.0885    4.7104    2.2296 N   0  0  0  0  0  0  0  0  0  0  0  0
    7.8379    3.9389    3.6819 H   0  0  0  0  0  0  0  0  0  0  0  0
    9.5487    3.8869    4.0886 H   0  0  0  0  0  0  0  0  0  0  0  0
   10.2106    5.5335    1.9948 C   0  0  0  0  0  0  0  0  0  0  0  0
    8.0437    5.3105    1.4156 C   0  0  0  0  0  0  0  0  0  0  0  0
    8.3443    6.8304    1.3705 C   0  0  0  0  0  0  0  0  0  0  0  0
    7.0608    5.1020    1.8285 H   0  0  0  0  0  0  0  0  0  0  0  0
    8.0990    4.8796    0.4120 H   0  0  0  0  0  0  0  0  0  0  0  0
    9.6656    6.9588    2.0330 N   0  0  0  0  0  0  0  0  0  0  0  0
    7.5819    7.4131    1.8878 H   0  0  0  0  0  0  0  0  0  0  0  0
    8.4170    7.1999    0.3486 H   0  0  0  0  0  0  0  0  0  0  0  0
   10.6020    5.3743    0.9836 H   0  0  0  0  0  0  0  0  0  0  0  0
   10.9979    5.3952    2.7343 H   0  0  0  0  0  0  0  0  0  0  0  0
   10.5758    7.9765    1.4859 C   0  0  0  0  0  0  0  0  0  0  0  0
   10.0903    9.3989    1.7431 C   0  0  0  0  0  0  0  0  0  0  0  0
   10.6807    7.7982    0.4128 H   0  0  0  0  0  0  0  0  0  0  0  0
   11.5501    7.8296    1.9617 H   0  0  0  0  0  0  0  0  0  0  0  0
    9.9600    9.7140    3.2348 C   0  0  0  0  0  0  0  0  0  0  0  0
    9.1300    9.5685    1.2542 H   0  0  0  0  0  0  0  0  0  0  0  0
   10.8206   10.0753    1.2958 H   0  0  0  0  0  0  0  0  0  0  0  0
    9.9337   11.2177    3.4803 C   0  0  0  0  0  0  0  0  0  0  0  0
   10.7998    9.2817    3.7868 H   0  0  0  0  0  0  0  0  0  0  0  0
    9.0363    9.2827    3.6258 H   0  0  0  0  0  0  0  0  0  0  0  0
    9.1470   11.6823    2.8945 H   0  0  0  0  0  0  0  0  0  0  0  0
   10.8826   11.6693    3.1994 H   0  0  0  0  0  0  0  0  0  0  0  0
    9.7514   11.4215    4.5317 H   0  0  0  0  0  0  0  0  0  0  0  0
    9.4935    7.1524    3.0356 H   0  0  0  0  0  0  0  0  0  0  0  0
    0.3670   -1.0293    3.0154 C   0  0  0  0  0  0  0  0  0  0  0  0
   -0.0901   -0.2091    3.9543 C   0  0  0  0  0  0  0  0  0  0  0  0
   -0.0546   -2.0098    2.8771 H   0  0  0  0  0  0  0  0  0  0  0  0
    1.1699   -0.7663    2.3499 H   0  0  0  0  0  0  0  0  0  0  0  0
    0.3907    1.1352    4.2490 C   0  0  0  0  0  0  0  0  0  0  0  0
   -0.8994   -0.5434    4.5906 H   0  0  0  0  0  0  0  0  0  0  0  0
   -0.1882    1.8451    5.3036 C   0  0  0  0  0  0  0  0  0  0  0  0
    0.2387    3.1161    5.6293 C   0  0  0  0  0  0  0  0  0  0  0  0
    1.2650    3.7197    4.9120 C   0  0  0  0  0  0  0  0  0  0  0  0
    1.4121    1.7541    3.5278 C   0  0  0  0  0  0  0  0  0  0  0  0
    1.8436    3.0233    3.8588 C   0  0  0  0  0  0  0  0  0  0  0  0
    1.8783    1.2380    2.7034 H   0  0  0  0  0  0  0  0  0  0  0  0
    2.6384    3.4856    3.2904 H   0  0  0  0  0  0  0  0  0  0  0  0
   -0.2127    3.6515    6.4504 H   0  0  0  0  0  0  0  0  0  0  0  0
   -0.9837    1.3871    5.8738 H   0  0  0  0  0  0  0  0  0  0  0  0
    1.7484    5.0943    5.2767 C   0  0  0  0  0  0  0  0  0  0  0  0
    2.0901    5.1735    6.7016 N   0  0  0  0  0  0  0  0  0  0  0  0
    0.9447    5.8167    5.1053 H   0  0  0  0  0  0  0  0  0  0  0  0
    2.5912    5.3679    4.6314 H   0  0  0  0  0  0  0  0  0  0  0  0
    2.7048    6.4006    7.0741 C   0  0  0  0  0  0  0  0  0  0  0  0
    3.0578    4.1812    7.1376 C   0  0  0  0  0  0  0  0  0  0  0  0
    4.4320    4.7830    6.7936 C   0  0  0  0  0  0  0  0  0  0  0  0
    2.8846    3.2234    6.6540 H   0  0  0  0  0  0  0  0  0  0  0  0
    2.9591    4.0518    8.2175 H   0  0  0  0  0  0  0  0  0  0  0  0
    4.1875    6.2496    6.7623 N   0  0  0  0  0  0  0  0  0  0  0  0
    4.7748    4.4592    5.8129 H   0  0  0  0  0  0  0  0  0  0  0  0
    5.1843    4.5357    7.5373 H   0  0  0  0  0  0  0  0  0  0  0  0
    2.6119    6.5390    8.1536 H   0  0  0  0  0  0  0  0  0  0  0  0
    2.2947    7.2587    6.5415 H   0  0  0  0  0  0  0  0  0  0  0  0
    5.1113    7.0552    7.5935 C   0  0  0  0  0  0  0  0  0  0  0  0
    5.0148    6.8076    9.0952 C   0  0  0  0  0  0  0  0  0  0  0  0
    4.9309    8.1078    7.3635 H   0  0  0  0  0  0  0  0  0  0  0  0
    6.1236    6.7885    7.2790 H   0  0  0  0  0  0  0  0  0  0  0  0
    6.2656    7.3521    9.7912 C   0  0  0  0  0  0  0  0  0  0  0  0
    4.9782    5.7375    9.2960 H   0  0  0  0  0  0  0  0  0  0  0  0
    4.1307    7.2821    9.5261 H   0  0  0  0  0  0  0  0  0  0  0  0
    6.3202    6.8973   11.2437 C   0  0  0  0  0  0  0  0  0  0  0  0
    6.2787    8.4426    9.7336 H   0  0  0  0  0  0  0  0  0  0  0  0
    7.1463    6.9728    9.2707 H   0  0  0  0  0  0  0  0  0  0  0  0
    7.2082    7.2897   11.7309 H   0  0  0  0  0  0  0  0  0  0  0  0
    6.3590    5.8116   11.2805 H   0  0  0  0  0  0  0  0  0  0  0  0
    5.4449    7.2380   11.7939 H   0  0  0  0  0  0  0  0  0  0  0  0
    4.3171    6.5555    5.7765 H   0  0  0  0  0  0  0  0  0  0  0  0
  1  3  1  0  0  0  0
  1  4  1  0  0  0  0
  1  5  1  0  0  0  0
  2  6  1  0  0  0  0
  2  7  1  0  0  0  0
  2  8  1  0  0  0  0
  1  9  1  0  0  0  0
  2 10  1  0  0  0  0
  9 11  1  0  0  0  0
 10 11  1  0  0  0  0
  9 12  2  0  0  0  0
  9 13  2  0  0  0  0
 10 14  2  0  0  0  0
 10 15  2  0  0  0  0
 16 18  1  0  0  0  0
 16 19  1  0  0  0  0
 16 20  1  0  0  0  0
 17 21  1  0  0  0  0
 17 22  1  0  0  0  0
 17 23  1  0  0  0  0
 16 24  1  0  0  0  0
 17 25  1  0  0  0  0
 24 26  1  0  0  0  0
 25 26  1  0  0  0  0
 24 27  2  0  0  0  0
 24 28  2  0  0  0  0
 25 29  2  0  0  0  0
 25 30  2  0  0  0  0
 31 32  2  0  0  0  0
 31 33  1  0  0  0  0
 31 34  1  0  0  0  0
 32 35  1  0  0  0  0
 32 36  1  0  0  0  0
 35 37  4  0  0  0  0
 37 38  4  0  0  0  0
 38 39  4  0  0  0  0
 35 40  4  0  0  0  0
 39 41  4  0  0  0  0
 40 41  4  0  0  0  0
 40 42  1  0  0  0  0
 41 43  1  0  0  0  0
 38 44  1  0  0  0  0
 37 45  1  0  0  0  0
 39 46  1  0  0  0  0
 46 47  1  0  0  0  0
 46 48  1  0  0  0  0
 46 49  1  0  0  0  0
 47 50  1  0  0  0  0
 47 51  1  0  0  0  0
 51 52  1  0  0  0  0
 51 53  1  0  0  0  0
 51 54  1  0  0  0  0
 50 55  1  0  0  0  0
 52 55  1  0  0  0  0
 52 56  1  0  0  0  0
 52 57  1  0  0  0  0
 50 58  1  0  0  0  0
 50 59  1  0  0  0  0
 55 60  1  0  0  0  0
 60 61  1  0  0  0  0
 60 62  1  0  0  0  0
 60 63  1  0  0  0  0
 61 64  1  0  0  0  0
 61 65  1  0  0  0  0
 61 66  1  0  0  0  0
 64 67  1  0  0  0  0
 64 68  1  0  0  0  0
 64 69  1  0  0  0  0
 67 70  1  0  0  0  0
 67 71  1  0  0  0  0
 67 72  1  0  0  0  0
 55 73  1  0  0  0  0
 74 75  2  0  0  0  0
 74 76  1  0  0  0  0
 74 77  1  0  0  0  0
 75 78  1  0  0  0  0
 75 79  1  0  0  0  0
 78 80  4  0  0  0  0
 80 81  4  0  0  0  0
 81 82  4  0  0  0  0
 78 83  4  0  0  0  0
 82 84  4  0  0  0  0
 83 84  4  0  0  0  0
 83 85  1  0  0  0  0
 84 86  1  0  0  0  0
 81 87  1  0  0  0  0
 80 88  1  0  0  0  0
 82 89  1  0  0  0  0
 89 90  1  0  0  0  0
 89 91  1  0  0  0  0
 89 92  1  0  0  0  0
 90 93  1  0  0  0  0
 90 94  1  0  0  0  0
 94 95  1  0  0  0  0
 94 96  1  0  0  0  0
 94 97  1  0  0  0  0
 93 98  1  0  0  0  0
 95 98  1  0  0  0  0
 95 99  1  0  0  0  0
 95100  1  0  0  0  0
 93101  1  0  0  0  0
 93102  1  0  0  0  0
 98103  1  0  0  0  0
103104  1  0  0  0  0
103105  1  0  0  0  0
103106  1  0  0  0  0
104107  1  0  0  0  0
104108  1  0  0  0  0
104109  1  0  0  0  0
107110  1  0  0  0  0
107111  1  0  0  0  0
107112  1  0  0  0  0
110113  1  0  0  0  0
110114  1  0  0  0  0
110115  1  0  0  0  0
 98116  1  0  0  0  0
M  END
