 xtb: 6.7.1 (edcfbbe)
          10212513503D

116116  0     0  0            999 V2000
    2.1722    2.7174    0.4028 C   0  0  0  0  0  0  0  0  0  0  0  0
    6.1867    3.0787    1.9124 C   0  0  0  0  0  0  0  0  0  0  0  0
    1.3437    2.1964   -0.4957 F   0  0  0  0  0  0  0  0  0  0  0  0
    1.4919    3.6505    1.0888 F   0  0  0  0  0  0  0  0  0  0  0  0
    3.1470    3.3517   -0.2497 F   0  0  0  0  0  0  0  0  0  0  0  0
    5.5302    4.0692    1.2958 F   0  0  0  0  0  0  0  0  0  0  0  0
    7.2206    3.6460    2.5535 F   0  0  0  0  0  0  0  0  0  0  0  0
    6.6785    2.2704    0.9881 F   0  0  0  0  0  0  0  0  0  0  0  0
    2.8938    1.4524    1.5992 S   0  0  0  0  0  0  0  0  0  0  0  0
    5.0255    2.2007    3.1285 S   0  0  0  0  0  0  0  0  0  0  0  0
    3.6054    2.5081    2.5545 N   0  0  0  0  0  0  0  0  0  0  0  0
    1.7502    0.8772    2.2315 O   0  0  0  0  0  0  0  0  0  0  0  0
    3.7778    0.6451    0.8372 O   0  0  0  0  0  0  0  0  0  0  0  0
    5.1684    3.0042    4.3251 O   0  0  0  0  0  0  0  0  0  0  0  0
    5.4729    0.8569    3.1616 O   0  0  0  0  0  0  0  0  0  0  0  0
    4.7363    9.6958   10.8352 C   0  0  0  0  0  0  0  0  0  0  0  0
    5.6458    4.8028   10.6493 C   0  0  0  0  0  0  0  0  0  0  0  0
    3.5683    9.9966   11.3839 F   0  0  0  0  0  0  0  0  0  0  0  0
    5.6469   10.5632   11.2871 F   0  0  0  0  0  0  0  0  0  0  0  0
    4.6326    9.8835    9.5173 F   0  0  0  0  0  0  0  0  0  0  0  0
    5.5983    3.5455   10.1995 F   0  0  0  0  0  0  0  0  0  0  0  0
    6.9339    5.0659   10.9014 F   0  0  0  0  0  0  0  0  0  0  0  0
    4.9697    4.8561   11.7864 F   0  0  0  0  0  0  0  0  0  0  0  0
    5.2464    7.9220   11.2100 S   0  0  0  0  0  0  0  0  0  0  0  0
    4.9390    5.9971    9.3741 S   0  0  0  0  0  0  0  0  0  0  0  0
    4.3027    7.1520   10.1983 N   0  0  0  0  0  0  0  0  0  0  0  0
    6.6295    7.8298   10.8247 O   0  0  0  0  0  0  0  0  0  0  0  0
    4.9355    7.7198   12.5802 O   0  0  0  0  0  0  0  0  0  0  0  0
    3.9539    5.2504    8.6607 O   0  0  0  0  0  0  0  0  0  0  0  0
    6.0990    6.3608    8.5783 O   0  0  0  0  0  0  0  0  0  0  0  0
    6.9818   -0.4831    5.8310 C   0  0  0  0  0  0  0  0  0  0  0  0
    6.2344    0.0154    6.8072 C   0  0  0  0  0  0  0  0  0  0  0  0
    7.9545   -0.9051    6.0241 H   0  0  0  0  0  0  0  0  0  0  0  0
    6.6582   -0.4601    4.8045 H   0  0  0  0  0  0  0  0  0  0  0  0
    4.9160    0.6122    6.6147 C   0  0  0  0  0  0  0  0  0  0  0  0
    6.6047    0.0291    7.8261 H   0  0  0  0  0  0  0  0  0  0  0  0
    4.0873    0.2398    5.5573 C   0  0  0  0  0  0  0  0  0  0  0  0
    2.8550    0.8378    5.3832 C   0  0  0  0  0  0  0  0  0  0  0  0
    2.3994    1.8011    6.2782 C   0  0  0  0  0  0  0  0  0  0  0  0
    4.4524    1.5740    7.5111 C   0  0  0  0  0  0  0  0  0  0  0  0
    3.2120    2.1581    7.3494 C   0  0  0  0  0  0  0  0  0  0  0  0
    5.0634    1.8654    8.3521 H   0  0  0  0  0  0  0  0  0  0  0  0
    2.8804    2.8873    8.0748 H   0  0  0  0  0  0  0  0  0  0  0  0
    2.2306    0.5360    4.5545 H   0  0  0  0  0  0  0  0  0  0  0  0
    4.4012   -0.5349    4.8780 H   0  0  0  0  0  0  0  0  0  0  0  0
    1.0193    2.3861    6.1115 C   0  0  0  0  0  0  0  0  0  0  0  0
    0.9323    3.7281    5.5432 N   0  0  0  0  0  0  0  0  0  0  0  0
    0.5130    2.4307    7.0788 H   0  0  0  0  0  0  0  0  0  0  0  0
    0.4356    1.7389    5.4518 H   0  0  0  0  0  0  0  0  0  0  0  0
    1.5496    3.9377    4.2854 C   0  0  0  0  0  0  0  0  0  0  0  0
    1.3690    4.8392    6.3596 C   0  0  0  0  0  0  0  0  0  0  0  0
    2.8137    5.1411    5.9169 C   0  0  0  0  0  0  0  0  0  0  0  0
    1.3149    4.6128    7.4209 H   0  0  0  0  0  0  0  0  0  0  0  0
    0.7184    5.6949    6.1498 H   0  0  0  0  0  0  0  0  0  0  0  0
    2.9146    4.5741    4.5505 N   0  0  0  0  0  0  0  0  0  0  0  0
    3.5318    4.6687    6.5831 H   0  0  0  0  0  0  0  0  0  0  0  0
    3.0024    6.2116    5.9055 H   0  0  0  0  0  0  0  0  0  0  0  0
    0.9789    4.6740    3.7079 H   0  0  0  0  0  0  0  0  0  0  0  0
    1.6693    3.0252    3.7019 H   0  0  0  0  0  0  0  0  0  0  0  0
    3.2892    5.5568    3.5175 C   0  0  0  0  0  0  0  0  0  0  0  0
    4.6989    6.1027    3.7276 C   0  0  0  0  0  0  0  0  0  0  0  0
    2.5543    6.3675    3.5289 H   0  0  0  0  0  0  0  0  0  0  0  0
    3.2412    5.0458    2.5542 H   0  0  0  0  0  0  0  0  0  0  0  0
    5.1180    7.0153    2.5745 C   0  0  0  0  0  0  0  0  0  0  0  0
    5.3882    5.2613    3.8000 H   0  0  0  0  0  0  0  0  0  0  0  0
    4.7638    6.6630    4.6623 H   0  0  0  0  0  0  0  0  0  0  0  0
    6.5750    7.4374    2.7120 C   0  0  0  0  0  0  0  0  0  0  0  0
    4.4861    7.9052    2.5595 H   0  0  0  0  0  0  0  0  0  0  0  0
    4.9822    6.4901    1.6294 H   0  0  0  0  0  0  0  0  0  0  0  0
    6.8549    8.0976    1.8959 H   0  0  0  0  0  0  0  0  0  0  0  0
    7.2224    6.5646    2.6891 H   0  0  0  0  0  0  0  0  0  0  0  0
    6.7329    7.9676    3.6487 H   0  0  0  0  0  0  0  0  0  0  0  0
    3.6529    3.8372    4.5252 H   0  0  0  0  0  0  0  0  0  0  0  0
    5.0961   11.2409    2.1448 C   0  0  0  0  0  0  0  0  0  0  0  0
    4.6154   10.6552    3.2350 C   0  0  0  0  0  0  0  0  0  0  0  0
    4.4735   11.4198    1.2849 H   0  0  0  0  0  0  0  0  0  0  0  0
    6.1219   11.5571    2.0580 H   0  0  0  0  0  0  0  0  0  0  0  0
    5.3572   10.3548    4.4543 C   0  0  0  0  0  0  0  0  0  0  0  0
    3.5769   10.3433    3.2507 H   0  0  0  0  0  0  0  0  0  0  0  0
    6.6018   10.9186    4.7398 C   0  0  0  0  0  0  0  0  0  0  0  0
    7.2605   10.6152    5.9134 C   0  0  0  0  0  0  0  0  0  0  0  0
    6.7077    9.7281    6.8320 C   0  0  0  0  0  0  0  0  0  0  0  0
    4.8085    9.4705    5.3848 C   0  0  0  0  0  0  0  0  0  0  0  0
    5.4788    9.1452    6.5490 C   0  0  0  0  0  0  0  0  0  0  0  0
    3.8392    9.0348    5.1870 H   0  0  0  0  0  0  0  0  0  0  0  0
    5.0468    8.4466    7.2521 H   0  0  0  0  0  0  0  0  0  0  0  0
    8.2155   11.0682    6.1335 H   0  0  0  0  0  0  0  0  0  0  0  0
    7.0448   11.6188    4.0491 H   0  0  0  0  0  0  0  0  0  0  0  0
    7.4282    9.4222    8.1144 C   0  0  0  0  0  0  0  0  0  0  0  0
    8.7968    8.9713    7.8416 N   0  0  0  0  0  0  0  0  0  0  0  0
    6.8639    8.6863    8.6962 H   0  0  0  0  0  0  0  0  0  0  0  0
    7.5126   10.3374    8.7059 H   0  0  0  0  0  0  0  0  0  0  0  0
    8.8661    7.7767    7.0858 C   0  0  0  0  0  0  0  0  0  0  0  0
    9.5637    8.6591    9.0319 C   0  0  0  0  0  0  0  0  0  0  0  0
    9.2164    7.1909    9.3672 C   0  0  0  0  0  0  0  0  0  0  0  0
    9.3106    9.3295    9.8489 H   0  0  0  0  0  0  0  0  0  0  0  0
   10.6263    8.7669    8.7946 H   0  0  0  0  0  0  0  0  0  0  0  0
    8.7510    6.6205    8.0751 N   0  0  0  0  0  0  0  0  0  0  0  0
    8.4087    7.1578   10.0976 H   0  0  0  0  0  0  0  0  0  0  0  0
   10.0761    6.6382    9.7408 H   0  0  0  0  0  0  0  0  0  0  0  0
    9.8542    7.6939    6.6188 H   0  0  0  0  0  0  0  0  0  0  0  0
    8.0840    7.7150    6.3297 H   0  0  0  0  0  0  0  0  0  0  0  0
    9.4776    5.4220    7.6142 C   0  0  0  0  0  0  0  0  0  0  0  0
    8.9753    4.1383    8.2670 C   0  0  0  0  0  0  0  0  0  0  0  0
   10.5409    5.5747    7.8201 H   0  0  0  0  0  0  0  0  0  0  0  0
    9.3467    5.3419    6.5336 H   0  0  0  0  0  0  0  0  0  0  0  0
    7.6824    3.6186    7.6298 C   0  0  0  0  0  0  0  0  0  0  0  0
    8.8228    4.3101    9.3332 H   0  0  0  0  0  0  0  0  0  0  0  0
    9.7482    3.3750    8.1595 H   0  0  0  0  0  0  0  0  0  0  0  0
    7.8795    3.1046    6.2083 C   0  0  0  0  0  0  0  0  0  0  0  0
    6.9181    4.3971    7.6356 H   0  0  0  0  0  0  0  0  0  0  0  0
    7.3102    2.7984    8.2425 H   0  0  0  0  0  0  0  0  0  0  0  0
    8.2381    3.8819    5.5378 H   0  0  0  0  0  0  0  0  0  0  0  0
    6.9363    2.7484    5.8077 H   0  0  0  0  0  0  0  0  0  0  0  0
    8.5923    2.2837    6.1919 H   0  0  0  0  0  0  0  0  0  0  0  0
    7.7388    6.3952    8.1888 H   0  0  0  0  0  0  0  0  0  0  0  0
  1  3  1  0  0  0  0
  1  4  1  0  0  0  0
  1  5  1  0  0  0  0
  2  6  1  0  0  0  0
  2  7  1  0  0  0  0
  2  8  1  0  0  0  0
  1  9  1  0  0  0  0
  2 10  1  0  0  0  0
  9 11  1  0  0  0  0
 10 11  1  0  0  0  0
  9 12  2  0  0  0  0
  9 13  2  0  0  0  0
 10 14  2  0  0  0  0
 10 15  2  0  0  0  0
 16 18  1  0  0  0  0
 16 19  1  0  0  0  0
 16 20  1  0  0  0  0
 17 21  1  0  0  0  0
 17 22  1  0  0  0  0
 17 23  1  0  0  0  0
 16 24  1  0  0  0  0
 17 25  1  0  0  0  0
 24 26  1  0  0  0  0
 25 26  1  0  0  0  0
 24 27  2  0  0  0  0
 24 28  2  0  0  0  0
 25 29  2  0  0  0  0
 25 30  2  0  0  0  0
 31 32  2  0  0  0  0
 31 33  1  0  0  0  0
 31 34  1  0  0  0  0
 32 35  1  0  0  0  0
 32 36  1  0  0  0  0
 35 37  4  0  0  0  0
 37 38  4  0  0  0  0
 38 39  4  0  0  0  0
 35 40  4  0  0  0  0
 39 41  4  0  0  0  0
 40 41  4  0  0  0  0
 40 42  1  0  0  0  0
 41 43  1  0  0  0  0
 38 44  1  0  0  0  0
 37 45  1  0  0  0  0
 39 46  1  0  0  0  0
 46 47  1  0  0  0  0
 46 48  1  0  0  0  0
 46 49  1  0  0  0  0
 47 50  1  0  0  0  0
 47 51  1  0  0  0  0
 51 52  1  0  0  0  0
 51 53  1  0  0  0  0
 51 54  1  0  0  0  0
 50 55  1  0  0  0  0
 52 55  1  0  0  0  0
 52 56  1  0  0  0  0
 52 57  1  0  0  0  0
 50 58  1  0  0  0  0
 50 59  1  0  0  0  0
 55 60  1  0  0  0  0
 60 61  1  0  0  0  0
 60 62  1  0  0  0  0
 60 63  1  0  0  0  0
 61 64  1  0  0  0  0
 61 65  1  0  0  0  0
 61 66  1  0  0  0  0
 64 67  1  0  0  0  0
 64 68  1  0  0  0  0
 64 69  1  0  0  0  0
 67 70  1  0  0  0  0
 67 71  1  0  0  0  0
 67 72  1  0  0  0  0
 55 73  1  0  0  0  0
 74 75  2  0  0  0  0
 74 76  1  0  0  0  0
 74 77  1  0  0  0  0
 75 78  1  0  0  0  0
 75 79  1  0  0  0  0
 78 80  4  0  0  0  0
 80 81  4  0  0  0  0
 81 82  4  0  0  0  0
 78 83  4  0  0  0  0
 82 84  4  0  0  0  0
 83 84  4  0  0  0  0
 83 85  1  0  0  0  0
 84 86  1  0  0  0  0
 81 87  1  0  0  0  0
 80 88  1  0  0  0  0
 82 89  1  0  0  0  0
 89 90  1  0  0  0  0
 89 91  1  0  0  0  0
 89 92  1  0  0  0  0
 90 93  1  0  0  0  0
 90 94  1  0  0  0  0
 94 95  1  0  0  0  0
 94 96  1  0  0  0  0
 94 97  1  0  0  0  0
 93 98  1  0  0  0  0
 95 98  1  0  0  0  0
 95 99  1  0  0  0  0
 95100  1  0  0  0  0
 93101  1  0  0  0  0
 93102  1  0  0  0  0
 98103  1  0  0  0  0
103104  1  0  0  0  0
103105  1  0  0  0  0
103106  1  0  0  0  0
104107  1  0  0  0  0
104108  1  0  0  0  0
104109  1  0  0  0  0
107110  1  0  0  0  0
107111  1  0  0  0  0
107112  1  0  0  0  0
110113  1  0  0  0  0
110114  1  0  0  0  0
110115  1  0  0  0  0
 98116  1  0  0  0  0
M  END
