 xtb: 6.7.1 (edcfbbe)
          10212513293D

116116  0     0  0            999 V2000
    5.0579    7.7452    0.9305 C   0  0  0  0  0  0  0  0  0  0  0  0
    8.0744    5.1602    1.4680 C   0  0  0  0  0  0  0  0  0  0  0  0
    6.0709    8.5820    1.1315 F   0  0  0  0  0  0  0  0  0  0  0  0
    5.3881    6.9154   -0.0602 F   0  0  0  0  0  0  0  0  0  0  0  0
    4.0030    8.4546    0.5247 F   0  0  0  0  0  0  0  0  0  0  0  0
    8.9122    5.4528    2.4714 F   0  0  0  0  0  0  0  0  0  0  0  0
    8.6167    4.1686    0.7659 F   0  0  0  0  0  0  0  0  0  0  0  0
    7.9910    6.2309    0.6844 F   0  0  0  0  0  0  0  0  0  0  0  0
    4.6603    6.7763    2.4879 S   0  0  0  0  0  0  0  0  0  0  0  0
    6.4185    4.7012    2.2259 S   0  0  0  0  0  0  0  0  0  0  0  0
    6.0274    6.0904    2.8484 N   0  0  0  0  0  0  0  0  0  0  0  0
    4.2855    7.7464    3.4589 O   0  0  0  0  0  0  0  0  0  0  0  0
    3.6315    5.8596    2.0673 O   0  0  0  0  0  0  0  0  0  0  0  0
    6.8014    3.7578    3.2399 O   0  0  0  0  0  0  0  0  0  0  0  0
    5.5671    4.2173    1.1849 O   0  0  0  0  0  0  0  0  0  0  0  0
    3.0083    2.1996    9.8101 C   0  0  0  0  0  0  0  0  0  0  0  0
    4.5625    6.3192   11.6443 C   0  0  0  0  0  0  0  0  0  0  0  0
    1.8347    2.8242    9.7015 F   0  0  0  0  0  0  0  0  0  0  0  0
    3.0064    1.2438    8.8623 F   0  0  0  0  0  0  0  0  0  0  0  0
    3.0686    1.5766   10.9726 F   0  0  0  0  0  0  0  0  0  0  0  0
    5.6622    5.6432   11.9693 F   0  0  0  0  0  0  0  0  0  0  0  0
    4.9333    7.3068   10.8167 F   0  0  0  0  0  0  0  0  0  0  0  0
    4.0943    6.8878   12.7552 F   0  0  0  0  0  0  0  0  0  0  0  0
    4.4688    3.3494    9.4743 S   0  0  0  0  0  0  0  0  0  0  0  0
    3.2341    5.2613   10.8157 S   0  0  0  0  0  0  0  0  0  0  0  0
    3.9148    4.8225    9.4534 N   0  0  0  0  0  0  0  0  0  0  0  0
    5.4491    3.0683   10.4756 O   0  0  0  0  0  0  0  0  0  0  0  0
    4.8690    3.0097    8.1295 O   0  0  0  0  0  0  0  0  0  0  0  0
    2.1757    6.1930   10.6062 O   0  0  0  0  0  0  0  0  0  0  0  0
    3.0192    4.1449   11.6796 O   0  0  0  0  0  0  0  0  0  0  0  0
   10.7703    5.2959   11.9756 C   0  0  0  0  0  0  0  0  0  0  0  0
   10.4602    6.3261   11.1978 C   0  0  0  0  0  0  0  0  0  0  0  0
   11.6667    5.2966   12.5716 H   0  0  0  0  0  0  0  0  0  0  0  0
   10.1466    4.4233   12.0621 H   0  0  0  0  0  0  0  0  0  0  0  0
    9.2785    6.4483   10.3528 C   0  0  0  0  0  0  0  0  0  0  0  0
   11.1242    7.1820   11.1686 H   0  0  0  0  0  0  0  0  0  0  0  0
    9.0530    7.6452    9.6694 C   0  0  0  0  0  0  0  0  0  0  0  0
    7.9478    7.8110    8.8556 C   0  0  0  0  0  0  0  0  0  0  0  0
    7.0307    6.7801    8.6865 C   0  0  0  0  0  0  0  0  0  0  0  0
    8.3414    5.4243   10.2013 C   0  0  0  0  0  0  0  0  0  0  0  0
    7.2430    5.5878    9.3783 C   0  0  0  0  0  0  0  0  0  0  0  0
    8.4475    4.4975   10.7404 H   0  0  0  0  0  0  0  0  0  0  0  0
    6.4935    4.8104    9.3288 H   0  0  0  0  0  0  0  0  0  0  0  0
    7.7874    8.7588    8.3621 H   0  0  0  0  0  0  0  0  0  0  0  0
    9.7501    8.4622    9.7920 H   0  0  0  0  0  0  0  0  0  0  0  0
    5.8608    6.9001    7.7438 C   0  0  0  0  0  0  0  0  0  0  0  0
    6.1211    6.3722    6.4044 N   0  0  0  0  0  0  0  0  0  0  0  0
    5.5846    7.9495    7.6214 H   0  0  0  0  0  0  0  0  0  0  0  0
    5.0016    6.3592    8.1492 H   0  0  0  0  0  0  0  0  0  0  0  0
    6.2426    4.9729    6.2729 C   0  0  0  0  0  0  0  0  0  0  0  0
    7.3004    6.8786    5.7363 C   0  0  0  0  0  0  0  0  0  0  0  0
    8.4274    5.8594    6.0606 C   0  0  0  0  0  0  0  0  0  0  0  0
    7.5416    7.8857    6.0666 H   0  0  0  0  0  0  0  0  0  0  0  0
    7.0986    6.8873    4.6622 H   0  0  0  0  0  0  0  0  0  0  0  0
    7.7163    4.6638    6.5737 N   0  0  0  0  0  0  0  0  0  0  0  0
    9.1127    6.2405    6.8180 H   0  0  0  0  0  0  0  0  0  0  0  0
    8.9788    5.5972    5.1590 H   0  0  0  0  0  0  0  0  0  0  0  0
    6.1014    4.6823    5.2289 H   0  0  0  0  0  0  0  0  0  0  0  0
    5.5817    4.4074    6.9315 H   0  0  0  0  0  0  0  0  0  0  0  0
    8.1955    3.3846    6.0192 C   0  0  0  0  0  0  0  0  0  0  0  0
    7.6340    2.1743    6.7587 C   0  0  0  0  0  0  0  0  0  0  0  0
    9.2862    3.3782    6.0771 H   0  0  0  0  0  0  0  0  0  0  0  0
    7.8941    3.3470    4.9694 H   0  0  0  0  0  0  0  0  0  0  0  0
    8.0652    2.0539    8.2243 C   0  0  0  0  0  0  0  0  0  0  0  0
    7.9714    1.2924    6.2117 H   0  0  0  0  0  0  0  0  0  0  0  0
    6.5449    2.1939    6.7295 H   0  0  0  0  0  0  0  0  0  0  0  0
    9.5662    2.2070    8.4512 C   0  0  0  0  0  0  0  0  0  0  0  0
    7.7589    1.0655    8.5680 H   0  0  0  0  0  0  0  0  0  0  0  0
    7.5138    2.7642    8.8401 H   0  0  0  0  0  0  0  0  0  0  0  0
    9.9038    3.2306    8.2975 H   0  0  0  0  0  0  0  0  0  0  0  0
   10.1234    1.5519    7.7841 H   0  0  0  0  0  0  0  0  0  0  0  0
    9.8119    1.9335    9.4736 H   0  0  0  0  0  0  0  0  0  0  0  0
    7.7854    4.6359    7.6040 H   0  0  0  0  0  0  0  0  0  0  0  0
    2.0910    6.8992    7.3926 C   0  0  0  0  0  0  0  0  0  0  0  0
    1.8692    5.5898    7.3989 C   0  0  0  0  0  0  0  0  0  0  0  0
    1.6897    7.5170    8.1756 H   0  0  0  0  0  0  0  0  0  0  0  0
    2.6847    7.3883    6.6380 H   0  0  0  0  0  0  0  0  0  0  0  0
    2.3813    4.6349    6.4266 C   0  0  0  0  0  0  0  0  0  0  0  0
    1.2722    5.1653    8.1938 H   0  0  0  0  0  0  0  0  0  0  0  0
    2.0233    3.2882    6.5315 C   0  0  0  0  0  0  0  0  0  0  0  0
    2.4845    2.3442    5.6338 C   0  0  0  0  0  0  0  0  0  0  0  0
    3.3043    2.7196    4.5744 C   0  0  0  0  0  0  0  0  0  0  0  0
    3.2372    5.0002    5.3849 C   0  0  0  0  0  0  0  0  0  0  0  0
    3.6796    4.0573    4.4760 C   0  0  0  0  0  0  0  0  0  0  0  0
    3.5705    6.0187    5.2714 H   0  0  0  0  0  0  0  0  0  0  0  0
    4.3591    4.3551    3.6906 H   0  0  0  0  0  0  0  0  0  0  0  0
    2.2136    1.3071    5.7696 H   0  0  0  0  0  0  0  0  0  0  0  0
    1.3677    2.9828    7.3315 H   0  0  0  0  0  0  0  0  0  0  0  0
    3.7212    1.7564    3.4921 C   0  0  0  0  0  0  0  0  0  0  0  0
    2.8005    1.7126    2.3494 N   0  0  0  0  0  0  0  0  0  0  0  0
    3.7762    0.7383    3.8835 H   0  0  0  0  0  0  0  0  0  0  0  0
    4.7022    2.0356    3.1037 H   0  0  0  0  0  0  0  0  0  0  0  0
    2.7180    2.8750    1.5417 C   0  0  0  0  0  0  0  0  0  0  0  0
    1.4203    1.4341    2.6862 C   0  0  0  0  0  0  0  0  0  0  0  0
    0.7480    2.8182    2.8655 C   0  0  0  0  0  0  0  0  0  0  0  0
    1.3495    0.8188    3.5790 H   0  0  0  0  0  0  0  0  0  0  0  0
    0.9617    0.8957    1.8518 H   0  0  0  0  0  0  0  0  0  0  0  0
    1.6828    3.7708    2.2220 N   0  0  0  0  0  0  0  0  0  0  0  0
    0.6172    3.0649    3.9176 H   0  0  0  0  0  0  0  0  0  0  0  0
   -0.2161    2.8546    2.3601 H   0  0  0  0  0  0  0  0  0  0  0  0
    2.3057    2.6112    0.5614 H   0  0  0  0  0  0  0  0  0  0  0  0
    3.6650    3.4026    1.4186 H   0  0  0  0  0  0  0  0  0  0  0  0
    1.0460    4.7701    1.3480 C   0  0  0  0  0  0  0  0  0  0  0  0
    0.0661    5.6610    2.1116 C   0  0  0  0  0  0  0  0  0  0  0  0
    0.5364    4.2453    0.5349 H   0  0  0  0  0  0  0  0  0  0  0  0
    1.8522    5.3823    0.9422 H   0  0  0  0  0  0  0  0  0  0  0  0
    0.6892    6.3369    3.3349 C   0  0  0  0  0  0  0  0  0  0  0  0
   -0.8137    5.0915    2.4212 H   0  0  0  0  0  0  0  0  0  0  0  0
   -0.2760    6.4315    1.4188 H   0  0  0  0  0  0  0  0  0  0  0  0
   -0.2461    7.3837    3.9285 C   0  0  0  0  0  0  0  0  0  0  0  0
    1.6316    6.8071    3.0526 H   0  0  0  0  0  0  0  0  0  0  0  0
    0.9034    5.5973    4.1100 H   0  0  0  0  0  0  0  0  0  0  0  0
    0.2068    7.8238    4.8116 H   0  0  0  0  0  0  0  0  0  0  0  0
   -1.1934    6.9333    4.2182 H   0  0  0  0  0  0  0  0  0  0  0  0
   -0.4454    8.1754    3.2110 H   0  0  0  0  0  0  0  0  0  0  0  0
    2.2207    4.2992    2.9310 H   0  0  0  0  0  0  0  0  0  0  0  0
  1  3  1  0  0  0  0
  1  4  1  0  0  0  0
  1  5  1  0  0  0  0
  2  6  1  0  0  0  0
  2  7  1  0  0  0  0
  2  8  1  0  0  0  0
  1  9  1  0  0  0  0
  2 10  1  0  0  0  0
  9 11  1  0  0  0  0
 10 11  1  0  0  0  0
  9 12  2  0  0  0  0
  9 13  2  0  0  0  0
 10 14  2  0  0  0  0
 10 15  2  0  0  0  0
 16 18  1  0  0  0  0
 16 19  1  0  0  0  0
 16 20  1  0  0  0  0
 17 21  1  0  0  0  0
 17 22  1  0  0  0  0
 17 23  1  0  0  0  0
 16 24  1  0  0  0  0
 17 25  1  0  0  0  0
 24 26  1  0  0  0  0
 25 26  1  0  0  0  0
 24 27  2  0  0  0  0
 24 28  2  0  0  0  0
 25 29  2  0  0  0  0
 25 30  2  0  0  0  0
 31 32  2  0  0  0  0
 31 33  1  0  0  0  0
 31 34  1  0  0  0  0
 32 35  1  0  0  0  0
 32 36  1  0  0  0  0
 35 37  4  0  0  0  0
 37 38  4  0  0  0  0
 38 39  4  0  0  0  0
 35 40  4  0  0  0  0
 39 41  4  0  0  0  0
 40 41  4  0  0  0  0
 40 42  1  0  0  0  0
 41 43  1  0  0  0  0
 38 44  1  0  0  0  0
 37 45  1  0  0  0  0
 39 46  1  0  0  0  0
 46 47  1  0  0  0  0
 46 48  1  0  0  0  0
 46 49  1  0  0  0  0
 47 50  1  0  0  0  0
 47 51  1  0  0  0  0
 51 52  1  0  0  0  0
 51 53  1  0  0  0  0
 51 54  1  0  0  0  0
 50 55  1  0  0  0  0
 52 55  1  0  0  0  0
 52 56  1  0  0  0  0
 52 57  1  0  0  0  0
 50 58  1  0  0  0  0
 50 59  1  0  0  0  0
 55 60  1  0  0  0  0
 60 61  1  0  0  0  0
 60 62  1  0  0  0  0
 60 63  1  0  0  0  0
 61 64  1  0  0  0  0
 61 65  1  0  0  0  0
 61 66  1  0  0  0  0
 64 67  1  0  0  0  0
 64 68  1  0  0  0  0
 64 69  1  0  0  0  0
 67 70  1  0  0  0  0
 67 71  1  0  0  0  0
 67 72  1  0  0  0  0
 55 73  1  0  0  0  0
 74 75  2  0  0  0  0
 74 76  1  0  0  0  0
 74 77  1  0  0  0  0
 75 78  1  0  0  0  0
 75 79  1  0  0  0  0
 78 80  4  0  0  0  0
 80 81  4  0  0  0  0
 81 82  4  0  0  0  0
 78 83  4  0  0  0  0
 82 84  4  0  0  0  0
 83 84  4  0  0  0  0
 83 85  1  0  0  0  0
 84 86  1  0  0  0  0
 81 87  1  0  0  0  0
 80 88  1  0  0  0  0
 82 89  1  0  0  0  0
 89 90  1  0  0  0  0
 89 91  1  0  0  0  0
 89 92  1  0  0  0  0
 90 93  1  0  0  0  0
 90 94  1  0  0  0  0
 94 95  1  0  0  0  0
 94 96  1  0  0  0  0
 94 97  1  0  0  0  0
 93 98  1  0  0  0  0
 95 98  1  0  0  0  0
 95 99  1  0  0  0  0
 95100  1  0  0  0  0
 93101  1  0  0  0  0
 93102  1  0  0  0  0
 98103  1  0  0  0  0
103104  1  0  0  0  0
103105  1  0  0  0  0
103106  1  0  0  0  0
104107  1  0  0  0  0
104108  1  0  0  0  0
104109  1  0  0  0  0
107110  1  0  0  0  0
107111  1  0  0  0  0
107112  1  0  0  0  0
110113  1  0  0  0  0
110114  1  0  0  0  0
110115  1  0  0  0  0
 98116  1  0  0  0  0
M  END
