 xtb: 6.7.1 (edcfbbe)
          10212513433D

116116  0     0  0            999 V2000
    8.2765    6.5461    3.2180 C   0  0  0  0  0  0  0  0  0  0  0  0
    6.4355    2.3926    2.1110 C   0  0  0  0  0  0  0  0  0  0  0  0
    7.5942    7.1892    2.2827 F   0  0  0  0  0  0  0  0  0  0  0  0
    7.6069    6.6487    4.3764 F   0  0  0  0  0  0  0  0  0  0  0  0
    9.4204    7.2256    3.4000 F   0  0  0  0  0  0  0  0  0  0  0  0
    7.7348    2.0552    1.9788 F   0  0  0  0  0  0  0  0  0  0  0  0
    5.8651    1.2407    2.4853 F   0  0  0  0  0  0  0  0  0  0  0  0
    5.9766    2.7410    0.9349 F   0  0  0  0  0  0  0  0  0  0  0  0
    8.6323    4.7381    2.7474 S   0  0  0  0  0  0  0  0  0  0  0  0
    6.3093    3.7036    3.4777 S   0  0  0  0  0  0  0  0  0  0  0  0
    7.8493    3.9008    3.8412 N   0  0  0  0  0  0  0  0  0  0  0  0
    8.0983    4.5891    1.4360 O   0  0  0  0  0  0  0  0  0  0  0  0
   10.0407    4.6072    2.9483 O   0  0  0  0  0  0  0  0  0  0  0  0
    5.7698    3.0076    4.6275 O   0  0  0  0  0  0  0  0  0  0  0  0
    5.7254    4.9257    3.0620 O   0  0  0  0  0  0  0  0  0  0  0  0
    1.4758    2.6651    3.0779 C   0  0  0  0  0  0  0  0  0  0  0  0
    0.7719    6.2884    3.8664 C   0  0  0  0  0  0  0  0  0  0  0  0
    0.7315    1.9167    3.8849 F   0  0  0  0  0  0  0  0  0  0  0  0
    0.7589    3.7467    2.7412 F   0  0  0  0  0  0  0  0  0  0  0  0
    1.6586    1.9609    1.9577 F   0  0  0  0  0  0  0  0  0  0  0  0
   -0.4807    5.8567    3.7615 F   0  0  0  0  0  0  0  0  0  0  0  0
    0.6836    7.5378    4.3862 F   0  0  0  0  0  0  0  0  0  0  0  0
    1.2774    6.4332    2.6489 F   0  0  0  0  0  0  0  0  0  0  0  0
    3.1491    3.1705    3.8289 S   0  0  0  0  0  0  0  0  0  0  0  0
    1.8460    5.1825    5.0045 S   0  0  0  0  0  0  0  0  0  0  0  0
    2.9958    4.7198    4.0689 N   0  0  0  0  0  0  0  0  0  0  0  0
    3.2255    2.4021    5.0282 O   0  0  0  0  0  0  0  0  0  0  0  0
    4.0559    2.8914    2.7608 O   0  0  0  0  0  0  0  0  0  0  0  0
    0.9591    4.1816    5.4977 O   0  0  0  0  0  0  0  0  0  0  0  0
    2.2678    6.1673    5.9842 O   0  0  0  0  0  0  0  0  0  0  0  0
    7.6601    9.5314   10.5967 C   0  0  0  0  0  0  0  0  0  0  0  0
    7.0638    8.6694    9.7826 C   0  0  0  0  0  0  0  0  0  0  0  0
    8.7243    9.6878   10.5629 H   0  0  0  0  0  0  0  0  0  0  0  0
    7.1200   10.1217   11.3180 H   0  0  0  0  0  0  0  0  0  0  0  0
    5.6336    8.3885    9.7330 C   0  0  0  0  0  0  0  0  0  0  0  0
    7.6539    8.1234    9.0578 H   0  0  0  0  0  0  0  0  0  0  0  0
    5.1075    7.7369    8.6160 C   0  0  0  0  0  0  0  0  0  0  0  0
    3.7552    7.4593    8.5214 C   0  0  0  0  0  0  0  0  0  0  0  0
    2.8859    7.8160    9.5553 C   0  0  0  0  0  0  0  0  0  0  0  0
    4.7603    8.7268   10.7677 C   0  0  0  0  0  0  0  0  0  0  0  0
    3.4103    8.4453   10.6782 C   0  0  0  0  0  0  0  0  0  0  0  0
    5.1429    9.1946   11.6615 H   0  0  0  0  0  0  0  0  0  0  0  0
    2.7602    8.6968   11.5050 H   0  0  0  0  0  0  0  0  0  0  0  0
    3.3873    6.8952    7.6753 H   0  0  0  0  0  0  0  0  0  0  0  0
    5.7652    7.4320    7.8153 H   0  0  0  0  0  0  0  0  0  0  0  0
    1.4062    7.5546    9.4254 C   0  0  0  0  0  0  0  0  0  0  0  0
    0.6769    8.5477    8.6348 N   0  0  0  0  0  0  0  0  0  0  0  0
    0.9392    7.5352   10.4130 H   0  0  0  0  0  0  0  0  0  0  0  0
    1.2441    6.5890    8.9456 H   0  0  0  0  0  0  0  0  0  0  0  0
    0.9466    8.5504    7.2443 C   0  0  0  0  0  0  0  0  0  0  0  0
    0.8444    9.9309    9.0374 C   0  0  0  0  0  0  0  0  0  0  0  0
    1.8987   10.5344    8.0700 C   0  0  0  0  0  0  0  0  0  0  0  0
    1.1518    9.9990   10.0785 H   0  0  0  0  0  0  0  0  0  0  0  0
   -0.1114   10.4482    8.9222 H   0  0  0  0  0  0  0  0  0  0  0  0
    2.1600    9.4583    7.0898 N   0  0  0  0  0  0  0  0  0  0  0  0
    2.8189   10.8105    8.5833 H   0  0  0  0  0  0  0  0  0  0  0  0
    1.4983   11.4057    7.5523 H   0  0  0  0  0  0  0  0  0  0  0  0
    0.1250    9.0203    6.6956 H   0  0  0  0  0  0  0  0  0  0  0  0
    1.1628    7.5617    6.8371 H   0  0  0  0  0  0  0  0  0  0  0  0
    2.4868    9.8719    5.7069 C   0  0  0  0  0  0  0  0  0  0  0  0
    3.5281    8.9353    5.1016 C   0  0  0  0  0  0  0  0  0  0  0  0
    2.8700   10.8954    5.7268 H   0  0  0  0  0  0  0  0  0  0  0  0
    1.5717    9.8516    5.1125 H   0  0  0  0  0  0  0  0  0  0  0  0
    3.6893    9.1514    3.5977 C   0  0  0  0  0  0  0  0  0  0  0  0
    3.2320    7.8993    5.2659 H   0  0  0  0  0  0  0  0  0  0  0  0
    4.4914    9.0985    5.5912 H   0  0  0  0  0  0  0  0  0  0  0  0
    4.7675    8.2301    3.0427 C   0  0  0  0  0  0  0  0  0  0  0  0
    3.9559   10.1938    3.4013 H   0  0  0  0  0  0  0  0  0  0  0  0
    2.7409    8.9478    3.1002 H   0  0  0  0  0  0  0  0  0  0  0  0
    4.8848    8.3761    1.9739 H   0  0  0  0  0  0  0  0  0  0  0  0
    4.5285    7.1837    3.2164 H   0  0  0  0  0  0  0  0  0  0  0  0
    5.7192    8.4448    3.5191 H   0  0  0  0  0  0  0  0  0  0  0  0
    2.9464    8.8736    7.4419 H   0  0  0  0  0  0  0  0  0  0  0  0
    2.6861    4.2734    9.9283 C   0  0  0  0  0  0  0  0  0  0  0  0
    3.2736    4.3539    8.7403 C   0  0  0  0  0  0  0  0  0  0  0  0
    1.6186    4.1699   10.0162 H   0  0  0  0  0  0  0  0  0  0  0  0
    3.2322    4.3037   10.8563 H   0  0  0  0  0  0  0  0  0  0  0  0
    4.7068    4.4577    8.4899 C   0  0  0  0  0  0  0  0  0  0  0  0
    2.6707    4.3209    7.8413 H   0  0  0  0  0  0  0  0  0  0  0  0
    5.6680    4.3678    9.5001 C   0  0  0  0  0  0  0  0  0  0  0  0
    7.0132    4.3089    9.1923 C   0  0  0  0  0  0  0  0  0  0  0  0
    7.4405    4.3461    7.8665 C   0  0  0  0  0  0  0  0  0  0  0  0
    5.1502    4.6288    7.1749 C   0  0  0  0  0  0  0  0  0  0  0  0
    6.4981    4.5920    6.8731 C   0  0  0  0  0  0  0  0  0  0  0  0
    4.4376    4.7522    6.3728 H   0  0  0  0  0  0  0  0  0  0  0  0
    6.8196    4.7119    5.8516 H   0  0  0  0  0  0  0  0  0  0  0  0
    7.7386    4.2158    9.9896 H   0  0  0  0  0  0  0  0  0  0  0  0
    5.3630    4.3067   10.5333 H   0  0  0  0  0  0  0  0  0  0  0  0
    8.8506    3.9776    7.4895 C   0  0  0  0  0  0  0  0  0  0  0  0
    9.0283    2.5380    7.2688 N   0  0  0  0  0  0  0  0  0  0  0  0
    9.5484    4.2514    8.2871 H   0  0  0  0  0  0  0  0  0  0  0  0
    9.1484    4.4771    6.5677 H   0  0  0  0  0  0  0  0  0  0  0  0
    8.6272    1.9854    6.0228 C   0  0  0  0  0  0  0  0  0  0  0  0
    8.4260    1.6561    8.2418 C   0  0  0  0  0  0  0  0  0  0  0  0
    7.0368    1.3011    7.6630 C   0  0  0  0  0  0  0  0  0  0  0  0
    8.3632    2.1181    9.2230 H   0  0  0  0  0  0  0  0  0  0  0  0
    9.0430    0.7546    8.3159 H   0  0  0  0  0  0  0  0  0  0  0  0
    7.2062    1.4450    6.2010 N   0  0  0  0  0  0  0  0  0  0  0  0
    6.2718    1.9869    8.0208 H   0  0  0  0  0  0  0  0  0  0  0  0
    6.7555    0.2820    7.9151 H   0  0  0  0  0  0  0  0  0  0  0  0
    9.2619    1.1195    5.7996 H   0  0  0  0  0  0  0  0  0  0  0  0
    8.6505    2.7014    5.1956 H   0  0  0  0  0  0  0  0  0  0  0  0
    6.9517    0.2131    5.4255 C   0  0  0  0  0  0  0  0  0  0  0  0
    5.4626   -0.0783    5.2280 C   0  0  0  0  0  0  0  0  0  0  0  0
    7.4679   -0.6195    5.9126 H   0  0  0  0  0  0  0  0  0  0  0  0
    7.3905    0.3654    4.4382 H   0  0  0  0  0  0  0  0  0  0  0  0
    4.6866   -0.6268    6.4266 C   0  0  0  0  0  0  0  0  0  0  0  0
    5.3874   -0.7983    4.4125 H   0  0  0  0  0  0  0  0  0  0  0  0
    4.9715    0.8380    4.8987 H   0  0  0  0  0  0  0  0  0  0  0  0
    5.2088   -1.9641    6.9460 C   0  0  0  0  0  0  0  0  0  0  0  0
    3.6577   -0.7624    6.0924 H   0  0  0  0  0  0  0  0  0  0  0  0
    4.6497    0.1090    7.2294 H   0  0  0  0  0  0  0  0  0  0  0  0
    5.2647   -2.6884    6.1351 H   0  0  0  0  0  0  0  0  0  0  0  0
    4.5374   -2.3577    7.7065 H   0  0  0  0  0  0  0  0  0  0  0  0
    6.1997   -1.8776    7.3912 H   0  0  0  0  0  0  0  0  0  0  0  0
    6.5566    2.1579    5.7765 H   0  0  0  0  0  0  0  0  0  0  0  0
  1  3  1  0  0  0  0
  1  4  1  0  0  0  0
  1  5  1  0  0  0  0
  2  6  1  0  0  0  0
  2  7  1  0  0  0  0
  2  8  1  0  0  0  0
  1  9  1  0  0  0  0
  2 10  1  0  0  0  0
  9 11  1  0  0  0  0
 10 11  1  0  0  0  0
  9 12  2  0  0  0  0
  9 13  2  0  0  0  0
 10 14  2  0  0  0  0
 10 15  2  0  0  0  0
 16 18  1  0  0  0  0
 16 19  1  0  0  0  0
 16 20  1  0  0  0  0
 17 21  1  0  0  0  0
 17 22  1  0  0  0  0
 17 23  1  0  0  0  0
 16 24  1  0  0  0  0
 17 25  1  0  0  0  0
 24 26  1  0  0  0  0
 25 26  1  0  0  0  0
 24 27  2  0  0  0  0
 24 28  2  0  0  0  0
 25 29  2  0  0  0  0
 25 30  2  0  0  0  0
 31 32  2  0  0  0  0
 31 33  1  0  0  0  0
 31 34  1  0  0  0  0
 32 35  1  0  0  0  0
 32 36  1  0  0  0  0
 35 37  4  0  0  0  0
 37 38  4  0  0  0  0
 38 39  4  0  0  0  0
 35 40  4  0  0  0  0
 39 41  4  0  0  0  0
 40 41  4  0  0  0  0
 40 42  1  0  0  0  0
 41 43  1  0  0  0  0
 38 44  1  0  0  0  0
 37 45  1  0  0  0  0
 39 46  1  0  0  0  0
 46 47  1  0  0  0  0
 46 48  1  0  0  0  0
 46 49  1  0  0  0  0
 47 50  1  0  0  0  0
 47 51  1  0  0  0  0
 51 52  1  0  0  0  0
 51 53  1  0  0  0  0
 51 54  1  0  0  0  0
 50 55  1  0  0  0  0
 52 55  1  0  0  0  0
 52 56  1  0  0  0  0
 52 57  1  0  0  0  0
 50 58  1  0  0  0  0
 50 59  1  0  0  0  0
 55 60  1  0  0  0  0
 60 61  1  0  0  0  0
 60 62  1  0  0  0  0
 60 63  1  0  0  0  0
 61 64  1  0  0  0  0
 61 65  1  0  0  0  0
 61 66  1  0  0  0  0
 64 67  1  0  0  0  0
 64 68  1  0  0  0  0
 64 69  1  0  0  0  0
 67 70  1  0  0  0  0
 67 71  1  0  0  0  0
 67 72  1  0  0  0  0
 55 73  1  0  0  0  0
 74 75  2  0  0  0  0
 74 76  1  0  0  0  0
 74 77  1  0  0  0  0
 75 78  1  0  0  0  0
 75 79  1  0  0  0  0
 78 80  4  0  0  0  0
 80 81  4  0  0  0  0
 81 82  4  0  0  0  0
 78 83  4  0  0  0  0
 82 84  4  0  0  0  0
 83 84  4  0  0  0  0
 83 85  1  0  0  0  0
 84 86  1  0  0  0  0
 81 87  1  0  0  0  0
 80 88  1  0  0  0  0
 82 89  1  0  0  0  0
 89 90  1  0  0  0  0
 89 91  1  0  0  0  0
 89 92  1  0  0  0  0
 90 93  1  0  0  0  0
 90 94  1  0  0  0  0
 94 95  1  0  0  0  0
 94 96  1  0  0  0  0
 94 97  1  0  0  0  0
 93 98  1  0  0  0  0
 95 98  1  0  0  0  0
 95 99  1  0  0  0  0
 95100  1  0  0  0  0
 93101  1  0  0  0  0
 93102  1  0  0  0  0
 98103  1  0  0  0  0
103104  1  0  0  0  0
103105  1  0  0  0  0
103106  1  0  0  0  0
104107  1  0  0  0  0
104108  1  0  0  0  0
104109  1  0  0  0  0
107110  1  0  0  0  0
107111  1  0  0  0  0
107112  1  0  0  0  0
110113  1  0  0  0  0
110114  1  0  0  0  0
110115  1  0  0  0  0
 98116  1  0  0  0  0
M  END
