 xtb: 6.7.1 (edcfbbe)
          10212513493D

116116  0     0  0            999 V2000
    4.7051    3.0165    2.3791 C   0  0  0  0  0  0  0  0  0  0  0  0
    5.4928    6.4462   -0.6048 C   0  0  0  0  0  0  0  0  0  0  0  0
    4.2032    2.3337    1.3689 F   0  0  0  0  0  0  0  0  0  0  0  0
    6.0054    2.7297    2.5081 F   0  0  0  0  0  0  0  0  0  0  0  0
    4.1049    2.5797    3.4948 F   0  0  0  0  0  0  0  0  0  0  0  0
    6.4060    7.0684   -1.3626 F   0  0  0  0  0  0  0  0  0  0  0  0
    4.5820    5.9323   -1.4089 F   0  0  0  0  0  0  0  0  0  0  0  0
    4.9327    7.3791    0.1656 F   0  0  0  0  0  0  0  0  0  0  0  0
    4.4824    4.8907    2.2585 S   0  0  0  0  0  0  0  0  0  0  0  0
    6.3575    5.1343    0.4469 S   0  0  0  0  0  0  0  0  0  0  0  0
    5.9427    5.4129    1.9416 N   0  0  0  0  0  0  0  0  0  0  0  0
    3.5742    5.1540    1.1949 O   0  0  0  0  0  0  0  0  0  0  0  0
    4.1041    5.2764    3.5907 O   0  0  0  0  0  0  0  0  0  0  0  0
    7.7617    5.4705    0.3326 O   0  0  0  0  0  0  0  0  0  0  0  0
    5.9566    3.8592   -0.0357 O   0  0  0  0  0  0  0  0  0  0  0  0
    8.6230    2.4593    7.3268 C   0  0  0  0  0  0  0  0  0  0  0  0
   12.1393    4.8798    6.2816 C   0  0  0  0  0  0  0  0  0  0  0  0
    9.5745    2.1447    6.4499 F   0  0  0  0  0  0  0  0  0  0  0  0
    8.9124    1.9580    8.5114 F   0  0  0  0  0  0  0  0  0  0  0  0
    7.4959    1.8584    6.9124 F   0  0  0  0  0  0  0  0  0  0  0  0
   11.9480    5.9254    5.4615 F   0  0  0  0  0  0  0  0  0  0  0  0
   13.3998    4.9189    6.6956 F   0  0  0  0  0  0  0  0  0  0  0  0
   11.9843    3.7839    5.5365 F   0  0  0  0  0  0  0  0  0  0  0  0
    8.3214    4.3235    7.3095 S   0  0  0  0  0  0  0  0  0  0  0  0
   10.8577    4.9358    7.6594 S   0  0  0  0  0  0  0  0  0  0  0  0
    9.5899    4.9861    6.6855 N   0  0  0  0  0  0  0  0  0  0  0  0
    7.2193    4.4560    6.3738 O   0  0  0  0  0  0  0  0  0  0  0  0
    7.9868    4.7051    8.6467 O   0  0  0  0  0  0  0  0  0  0  0  0
   11.1250    6.1488    8.3502 O   0  0  0  0  0  0  0  0  0  0  0  0
   10.9210    3.6933    8.3488 O   0  0  0  0  0  0  0  0  0  0  0  0
    2.3330   10.8594    5.4408 C   0  0  0  0  0  0  0  0  0  0  0  0
    3.4625   11.3130    4.9094 C   0  0  0  0  0  0  0  0  0  0  0  0
    1.6411   11.5203    5.9341 H   0  0  0  0  0  0  0  0  0  0  0  0
    2.0490    9.8206    5.4036 H   0  0  0  0  0  0  0  0  0  0  0  0
    4.4758   10.5168    4.2263 C   0  0  0  0  0  0  0  0  0  0  0  0
    3.6944   12.3685    4.9921 H   0  0  0  0  0  0  0  0  0  0  0  0
    4.2525    9.2042    3.8114 C   0  0  0  0  0  0  0  0  0  0  0  0
    5.2502    8.4749    3.1947 C   0  0  0  0  0  0  0  0  0  0  0  0
    6.5069    9.0299    2.9780 C   0  0  0  0  0  0  0  0  0  0  0  0
    5.7263   11.0806    3.9653 C   0  0  0  0  0  0  0  0  0  0  0  0
    6.7271   10.3476    3.3589 C   0  0  0  0  0  0  0  0  0  0  0  0
    5.9082   12.1083    4.2478 H   0  0  0  0  0  0  0  0  0  0  0  0
    7.6919   10.7944    3.1743 H   0  0  0  0  0  0  0  0  0  0  0  0
    5.0434    7.4669    2.8671 H   0  0  0  0  0  0  0  0  0  0  0  0
    3.2830    8.7517    3.9462 H   0  0  0  0  0  0  0  0  0  0  0  0
    7.6022    8.2182    2.3421 C   0  0  0  0  0  0  0  0  0  0  0  0
    8.5025    7.6760    3.3677 N   0  0  0  0  0  0  0  0  0  0  0  0
    8.2072    8.8647    1.7016 H   0  0  0  0  0  0  0  0  0  0  0  0
    7.1530    7.4235    1.7351 H   0  0  0  0  0  0  0  0  0  0  0  0
    9.6333    6.9803    2.8580 C   0  0  0  0  0  0  0  0  0  0  0  0
    7.8744    6.7207    4.2729 C   0  0  0  0  0  0  0  0  0  0  0  0
    8.3287    5.3158    3.8245 C   0  0  0  0  0  0  0  0  0  0  0  0
    6.7932    6.8138    4.2231 H   0  0  0  0  0  0  0  0  0  0  0  0
    8.2171    6.9064    5.2938 H   0  0  0  0  0  0  0  0  0  0  0  0
    9.1689    5.5611    2.6364 N   0  0  0  0  0  0  0  0  0  0  0  0
    7.4792    4.6879    3.5740 H   0  0  0  0  0  0  0  0  0  0  0  0
    8.9274    4.8573    4.6120 H   0  0  0  0  0  0  0  0  0  0  0  0
   10.4162    6.9427    3.6238 H   0  0  0  0  0  0  0  0  0  0  0  0
   10.0171    7.4134    1.9344 H   0  0  0  0  0  0  0  0  0  0  0  0
   10.2207    4.5564    2.4235 C   0  0  0  0  0  0  0  0  0  0  0  0
    9.6062    3.1853    2.1480 C   0  0  0  0  0  0  0  0  0  0  0  0
   10.8550    4.5245    3.3110 H   0  0  0  0  0  0  0  0  0  0  0  0
   10.8175    4.8686    1.5627 H   0  0  0  0  0  0  0  0  0  0  0  0
   10.6517    2.1507    1.7264 C   0  0  0  0  0  0  0  0  0  0  0  0
    8.8647    3.2896    1.3525 H   0  0  0  0  0  0  0  0  0  0  0  0
    9.0960    2.8245    3.0414 H   0  0  0  0  0  0  0  0  0  0  0  0
   11.6429    1.8191    2.8368 C   0  0  0  0  0  0  0  0  0  0  0  0
   11.1892    2.5102    0.8466 H   0  0  0  0  0  0  0  0  0  0  0  0
   10.1233    1.2407    1.4391 H   0  0  0  0  0  0  0  0  0  0  0  0
   11.1202    1.5615    3.7543 H   0  0  0  0  0  0  0  0  0  0  0  0
   12.3004    2.6576    3.0461 H   0  0  0  0  0  0  0  0  0  0  0  0
   12.2603    0.9739    2.5442 H   0  0  0  0  0  0  0  0  0  0  0  0
    8.5605    5.5537    1.7815 H   0  0  0  0  0  0  0  0  0  0  0  0
   10.0916   10.8732    4.8221 C   0  0  0  0  0  0  0  0  0  0  0  0
    9.9415    9.7483    5.5105 C   0  0  0  0  0  0  0  0  0  0  0  0
   10.9387   11.0249    4.1757 H   0  0  0  0  0  0  0  0  0  0  0  0
    9.3938   11.6908    4.8821 H   0  0  0  0  0  0  0  0  0  0  0  0
    8.8482    9.4217    6.4169 C   0  0  0  0  0  0  0  0  0  0  0  0
   10.6954    8.9750    5.4315 H   0  0  0  0  0  0  0  0  0  0  0  0
    7.7004   10.2034    6.5475 C   0  0  0  0  0  0  0  0  0  0  0  0
    6.6880    9.8380    7.4111 C   0  0  0  0  0  0  0  0  0  0  0  0
    6.7862    8.6843    8.1856 C   0  0  0  0  0  0  0  0  0  0  0  0
    8.9479    8.2722    7.2035 C   0  0  0  0  0  0  0  0  0  0  0  0
    7.9392    7.9142    8.0781 C   0  0  0  0  0  0  0  0  0  0  0  0
    9.8383    7.6636    7.1653 H   0  0  0  0  0  0  0  0  0  0  0  0
    8.0718    7.0326    8.6865 H   0  0  0  0  0  0  0  0  0  0  0  0
    5.8175   10.4734    7.5016 H   0  0  0  0  0  0  0  0  0  0  0  0
    7.5996   11.1110    5.9768 H   0  0  0  0  0  0  0  0  0  0  0  0
    5.6875    8.3077    9.1493 C   0  0  0  0  0  0  0  0  0  0  0  0
    4.6479    7.4051    8.6561 N   0  0  0  0  0  0  0  0  0  0  0  0
    5.1652    9.2119    9.4757 H   0  0  0  0  0  0  0  0  0  0  0  0
    6.1202    7.8320   10.0314 H   0  0  0  0  0  0  0  0  0  0  0  0
    4.9940    6.0165    8.4992 C   0  0  0  0  0  0  0  0  0  0  0  0
    3.9961    7.7917    7.4190 C   0  0  0  0  0  0  0  0  0  0  0  0
    4.7259    6.9759    6.3488 C   0  0  0  0  0  0  0  0  0  0  0  0
    4.0689    8.8625    7.2477 H   0  0  0  0  0  0  0  0  0  0  0  0
    2.9391    7.5122    7.4726 H   0  0  0  0  0  0  0  0  0  0  0  0
    4.9298    5.6775    7.0271 N   0  0  0  0  0  0  0  0  0  0  0  0
    5.6948    7.4331    6.1452 H   0  0  0  0  0  0  0  0  0  0  0  0
    4.1855    6.8352    5.4157 H   0  0  0  0  0  0  0  0  0  0  0  0
    4.2472    5.3997    9.0105 H   0  0  0  0  0  0  0  0  0  0  0  0
    5.9852    5.7822    8.8950 H   0  0  0  0  0  0  0  0  0  0  0  0
    3.8722    4.6927    6.7013 C   0  0  0  0  0  0  0  0  0  0  0  0
    4.2399    3.2933    7.1781 C   0  0  0  0  0  0  0  0  0  0  0  0
    3.7612    4.6786    5.6147 H   0  0  0  0  0  0  0  0  0  0  0  0
    2.9335    5.0266    7.1513 H   0  0  0  0  0  0  0  0  0  0  0  0
    3.1724    2.2752    6.7744 C   0  0  0  0  0  0  0  0  0  0  0  0
    4.3651    3.2703    8.2626 H   0  0  0  0  0  0  0  0  0  0  0  0
    5.1895    3.0094    6.7250 H   0  0  0  0  0  0  0  0  0  0  0  0
    3.5874    0.8642    7.1717 C   0  0  0  0  0  0  0  0  0  0  0  0
    3.0307    2.3192    5.6950 H   0  0  0  0  0  0  0  0  0  0  0  0
    2.2230    2.5275    7.2514 H   0  0  0  0  0  0  0  0  0  0  0  0
    4.5386    0.6125    6.7132 H   0  0  0  0  0  0  0  0  0  0  0  0
    2.8444    0.1425    6.8435 H   0  0  0  0  0  0  0  0  0  0  0  0
    3.6933    0.7832    8.2509 H   0  0  0  0  0  0  0  0  0  0  0  0
    5.8306    5.2381    6.7255 H   0  0  0  0  0  0  0  0  0  0  0  0
  1  3  1  0  0  0  0
  1  4  1  0  0  0  0
  1  5  1  0  0  0  0
  2  6  1  0  0  0  0
  2  7  1  0  0  0  0
  2  8  1  0  0  0  0
  1  9  1  0  0  0  0
  2 10  1  0  0  0  0
  9 11  1  0  0  0  0
 10 11  1  0  0  0  0
  9 12  2  0  0  0  0
  9 13  2  0  0  0  0
 10 14  2  0  0  0  0
 10 15  2  0  0  0  0
 16 18  1  0  0  0  0
 16 19  1  0  0  0  0
 16 20  1  0  0  0  0
 17 21  1  0  0  0  0
 17 22  1  0  0  0  0
 17 23  1  0  0  0  0
 16 24  1  0  0  0  0
 17 25  1  0  0  0  0
 24 26  1  0  0  0  0
 25 26  1  0  0  0  0
 24 27  2  0  0  0  0
 24 28  2  0  0  0  0
 25 29  2  0  0  0  0
 25 30  2  0  0  0  0
 31 32  2  0  0  0  0
 31 33  1  0  0  0  0
 31 34  1  0  0  0  0
 32 35  1  0  0  0  0
 32 36  1  0  0  0  0
 35 37  4  0  0  0  0
 37 38  4  0  0  0  0
 38 39  4  0  0  0  0
 35 40  4  0  0  0  0
 39 41  4  0  0  0  0
 40 41  4  0  0  0  0
 40 42  1  0  0  0  0
 41 43  1  0  0  0  0
 38 44  1  0  0  0  0
 37 45  1  0  0  0  0
 39 46  1  0  0  0  0
 46 47  1  0  0  0  0
 46 48  1  0  0  0  0
 46 49  1  0  0  0  0
 47 50  1  0  0  0  0
 47 51  1  0  0  0  0
 51 52  1  0  0  0  0
 51 53  1  0  0  0  0
 51 54  1  0  0  0  0
 50 55  1  0  0  0  0
 52 55  1  0  0  0  0
 52 56  1  0  0  0  0
 52 57  1  0  0  0  0
 50 58  1  0  0  0  0
 50 59  1  0  0  0  0
 55 60  1  0  0  0  0
 60 61  1  0  0  0  0
 60 62  1  0  0  0  0
 60 63  1  0  0  0  0
 61 64  1  0  0  0  0
 61 65  1  0  0  0  0
 61 66  1  0  0  0  0
 64 67  1  0  0  0  0
 64 68  1  0  0  0  0
 64 69  1  0  0  0  0
 67 70  1  0  0  0  0
 67 71  1  0  0  0  0
 67 72  1  0  0  0  0
 55 73  1  0  0  0  0
 74 75  2  0  0  0  0
 74 76  1  0  0  0  0
 74 77  1  0  0  0  0
 75 78  1  0  0  0  0
 75 79  1  0  0  0  0
 78 80  4  0  0  0  0
 80 81  4  0  0  0  0
 81 82  4  0  0  0  0
 78 83  4  0  0  0  0
 82 84  4  0  0  0  0
 83 84  4  0  0  0  0
 83 85  1  0  0  0  0
 84 86  1  0  0  0  0
 81 87  1  0  0  0  0
 80 88  1  0  0  0  0
 82 89  1  0  0  0  0
 89 90  1  0  0  0  0
 89 91  1  0  0  0  0
 89 92  1  0  0  0  0
 90 93  1  0  0  0  0
 90 94  1  0  0  0  0
 94 95  1  0  0  0  0
 94 96  1  0  0  0  0
 94 97  1  0  0  0  0
 93 98  1  0  0  0  0
 95 98  1  0  0  0  0
 95 99  1  0  0  0  0
 95100  1  0  0  0  0
 93101  1  0  0  0  0
 93102  1  0  0  0  0
 98103  1  0  0  0  0
103104  1  0  0  0  0
103105  1  0  0  0  0
103106  1  0  0  0  0
104107  1  0  0  0  0
104108  1  0  0  0  0
104109  1  0  0  0  0
107110  1  0  0  0  0
107111  1  0  0  0  0
107112  1  0  0  0  0
110113  1  0  0  0  0
110114  1  0  0  0  0
110115  1  0  0  0  0
 98116  1  0  0  0  0
M  END
