 xtb: 6.7.1 (edcfbbe)
          10202515363D

290290  0     0  0            999 V2000
    4.0565    1.4211    4.8852 C   0  0  0  0  0  0  0  0  0  0  0  0
    3.6508    2.4130    0.6994 C   0  0  0  0  0  0  0  0  0  0  0  0
    3.3207    1.2167    5.9775 F   0  0  0  0  0  0  0  0  0  0  0  0
    3.4294    0.8040    3.8821 F   0  0  0  0  0  0  0  0  0  0  0  0
    5.2365    0.8452    5.0801 F   0  0  0  0  0  0  0  0  0  0  0  0
    2.8180    1.4611    1.1121 F   0  0  0  0  0  0  0  0  0  0  0  0
    2.8999    3.4824    0.3899 F   0  0  0  0  0  0  0  0  0  0  0  0
    4.2289    1.9943   -0.4251 F   0  0  0  0  0  0  0  0  0  0  0  0
    4.2092    3.2738    4.5679 S   0  0  0  0  0  0  0  0  0  0  0  0
    4.8799    2.9268    2.0334 S   0  0  0  0  0  0  0  0  0  0  0  0
    3.8144    3.5060    3.0563 N   0  0  0  0  0  0  0  0  0  0  0  0
    3.1751    3.8710    5.3607 O   0  0  0  0  0  0  0  0  0  0  0  0
    5.5604    3.6238    4.8718 O   0  0  0  0  0  0  0  0  0  0  0  0
    5.6801    3.9134    1.3812 O   0  0  0  0  0  0  0  0  0  0  0  0
    5.5181    1.7485    2.5196 O   0  0  0  0  0  0  0  0  0  0  0  0
   12.6443   13.0986    8.9491 C   0  0  0  0  0  0  0  0  0  0  0  0
   12.2419   13.2304   13.8161 C   0  0  0  0  0  0  0  0  0  0  0  0
   13.4068   14.1696    8.7454 F   0  0  0  0  0  0  0  0  0  0  0  0
   12.4447   12.5382    7.7327 F   0  0  0  0  0  0  0  0  0  0  0  0
   11.4451   13.5364    9.3396 F   0  0  0  0  0  0  0  0  0  0  0  0
   13.4384   13.2395   14.3967 F   0  0  0  0  0  0  0  0  0  0  0  0
   11.9749   14.4653   13.3970 F   0  0  0  0  0  0  0  0  0  0  0  0
   11.3422   12.9217   14.7578 F   0  0  0  0  0  0  0  0  0  0  0  0
   13.4933   11.8920   10.1469 S   0  0  0  0  0  0  0  0  0  0  0  0
   12.1745   12.0099   12.3924 S   0  0  0  0  0  0  0  0  0  0  0  0
   13.3340   12.6329   11.5161 N   0  0  0  0  0  0  0  0  0  0  0  0
   12.7278   10.6785   10.0648 O   0  0  0  0  0  0  0  0  0  0  0  0
   14.8185   11.8608    9.6239 O   0  0  0  0  0  0  0  0  0  0  0  0
   10.8602   12.1288   11.8485 O   0  0  0  0  0  0  0  0  0  0  0  0
   12.5006   10.7423   12.9857 O   0  0  0  0  0  0  0  0  0  0  0  0
    3.3279   12.0469    4.7335 C   0  0  0  0  0  0  0  0  0  0  0  0
    5.5235   13.8412    0.9346 C   0  0  0  0  0  0  0  0  0  0  0  0
    2.8222   12.7061    5.7915 F   0  0  0  0  0  0  0  0  0  0  0  0
    2.5525   10.9644    4.5602 F   0  0  0  0  0  0  0  0  0  0  0  0
    4.5333   11.6132    5.1011 F   0  0  0  0  0  0  0  0  0  0  0  0
    5.5123   12.6666    0.3239 F   0  0  0  0  0  0  0  0  0  0  0  0
    4.3967   14.4940    0.6714 F   0  0  0  0  0  0  0  0  0  0  0  0
    6.5273   14.5472    0.3948 F   0  0  0  0  0  0  0  0  0  0  0  0
    3.3000   13.1882    3.2121 S   0  0  0  0  0  0  0  0  0  0  0  0
    5.8326   13.7058    2.7918 S   0  0  0  0  0  0  0  0  0  0  0  0
    4.5095   14.1536    3.5117 N   0  0  0  0  0  0  0  0  0  0  0  0
    3.5362   12.3251    2.1003 O   0  0  0  0  0  0  0  0  0  0  0  0
    2.0269   13.8062    3.3544 O   0  0  0  0  0  0  0  0  0  0  0  0
    6.8963   14.6358    3.0540 O   0  0  0  0  0  0  0  0  0  0  0  0
    6.2091   12.3364    3.0351 O   0  0  0  0  0  0  0  0  0  0  0  0
    5.1367    3.8618    8.1612 C   0  0  0  0  0  0  0  0  0  0  0  0
    8.1188    2.9725   11.8051 C   0  0  0  0  0  0  0  0  0  0  0  0
    4.0042    4.4211    7.7980 F   0  0  0  0  0  0  0  0  0  0  0  0
    6.1474    4.5988    7.6728 F   0  0  0  0  0  0  0  0  0  0  0  0
    5.2073    2.6722    7.5483 F   0  0  0  0  0  0  0  0  0  0  0  0
    6.9880    2.5811   12.3633 F   0  0  0  0  0  0  0  0  0  0  0  0
    8.6837    1.9396   11.1787 F   0  0  0  0  0  0  0  0  0  0  0  0
    8.9661    3.2809   12.8095 F   0  0  0  0  0  0  0  0  0  0  0  0
    5.6343    3.5276    9.9533 S   0  0  0  0  0  0  0  0  0  0  0  0
    7.8817    4.5521   10.7713 S   0  0  0  0  0  0  0  0  0  0  0  0
    6.3611    4.7833   10.5915 N   0  0  0  0  0  0  0  0  0  0  0  0
    4.5727    2.9518   10.7040 O   0  0  0  0  0  0  0  0  0  0  0  0
    6.7265    2.6136    9.6488 O   0  0  0  0  0  0  0  0  0  0  0  0
    8.6755    4.3726    9.5624 O   0  0  0  0  0  0  0  0  0  0  0  0
    8.4973    5.5372   11.6214 O   0  0  0  0  0  0  0  0  0  0  0  0
    1.4533    8.4343   11.8389 C   0  0  0  0  0  0  0  0  0  0  0  0
    3.3289    4.2489   12.4616 C   0  0  0  0  0  0  0  0  0  0  0  0
    1.0929    8.1010   13.0651 F   0  0  0  0  0  0  0  0  0  0  0  0
    1.9833    9.6950   11.9206 F   0  0  0  0  0  0  0  0  0  0  0  0
    0.3327    8.6061   11.1147 F   0  0  0  0  0  0  0  0  0  0  0  0
    4.5929    4.4850   12.7910 F   0  0  0  0  0  0  0  0  0  0  0  0
    2.5858    4.9990   13.2985 F   0  0  0  0  0  0  0  0  0  0  0  0
    3.0336    2.9905   12.7540 F   0  0  0  0  0  0  0  0  0  0  0  0
    2.7511    7.3211   10.9717 S   0  0  0  0  0  0  0  0  0  0  0  0
    2.8759    4.7557   10.6917 S   0  0  0  0  0  0  0  0  0  0  0  0
    1.9264    5.9979   10.9991 N   0  0  0  0  0  0  0  0  0  0  0  0
    2.7978    8.0166    9.7091 O   0  0  0  0  0  0  0  0  0  0  0  0
    3.8631    7.4785   11.8478 O   0  0  0  0  0  0  0  0  0  0  0  0
    2.1353    3.7109   10.0837 O   0  0  0  0  0  0  0  0  0  0  0  0
    4.0530    5.2916   10.0426 O   0  0  0  0  0  0  0  0  0  0  0  0
   11.7470    6.2292    4.3190 C   0  0  0  0  0  0  0  0  0  0  0  0
   11.4185    7.1293    3.4015 C   0  0  0  0  0  0  0  0  0  0  0  0
   11.6025    5.1761    4.1485 H   0  0  0  0  0  0  0  0  0  0  0  0
   12.2028    6.5025    5.2561 H   0  0  0  0  0  0  0  0  0  0  0  0
   11.6282    8.5680    3.5333 C   0  0  0  0  0  0  0  0  0  0  0  0
   11.0061    6.8083    2.4538 H   0  0  0  0  0  0  0  0  0  0  0  0
   11.8527    9.3337    2.3892 C   0  0  0  0  0  0  0  0  0  0  0  0
   12.1293   10.6833    2.4840 C   0  0  0  0  0  0  0  0  0  0  0  0
   12.1630   11.3199    3.7211 C   0  0  0  0  0  0  0  0  0  0  0  0
   11.6456    9.2107    4.7710 C   0  0  0  0  0  0  0  0  0  0  0  0
   11.9041   10.5660    4.8631 C   0  0  0  0  0  0  0  0  0  0  0  0
   11.4474    8.6432    5.6673 H   0  0  0  0  0  0  0  0  0  0  0  0
   11.9521   11.0300    5.8382 H   0  0  0  0  0  0  0  0  0  0  0  0
   12.3369   11.2473    1.5862 H   0  0  0  0  0  0  0  0  0  0  0  0
   11.8382    8.8567    1.4207 H   0  0  0  0  0  0  0  0  0  0  0  0
   12.4662   12.7957    3.8119 C   0  0  0  0  0  0  0  0  0  0  0  0
   11.3081   13.6872    3.8648 N   0  0  0  0  0  0  0  0  0  0  0  0
   13.0483   13.1019    2.9397 H   0  0  0  0  0  0  0  0  0  0  0  0
   13.0638   12.9976    4.7032 H   0  0  0  0  0  0  0  0  0  0  0  0
   10.5485   13.6936    5.0534 C   0  0  0  0  0  0  0  0  0  0  0  0
   10.3129   13.5202    2.8248 C   0  0  0  0  0  0  0  0  0  0  0  0
    9.3322   12.4767    3.3902 C   0  0  0  0  0  0  0  0  0  0  0  0
   10.7637   13.2046    1.8882 H   0  0  0  0  0  0  0  0  0  0  0  0
    9.7936   14.4694    2.6713 H   0  0  0  0  0  0  0  0  0  0  0  0
    9.4021   12.6773    4.8652 N   0  0  0  0  0  0  0  0  0  0  0  0
    9.6530   11.4681    3.1369 H   0  0  0  0  0  0  0  0  0  0  0  0
    8.3147   12.6353    3.0395 H   0  0  0  0  0  0  0  0  0  0  0  0
   10.0592   14.6654    5.1695 H   0  0  0  0  0  0  0  0  0  0  0  0
   11.1467   13.4575    5.9304 H   0  0  0  0  0  0  0  0  0  0  0  0
    8.1197   13.1490    5.4353 C   0  0  0  0  0  0  0  0  0  0  0  0
    8.1640   13.3415    6.9497 C   0  0  0  0  0  0  0  0  0  0  0  0
    7.3452   12.4290    5.1656 H   0  0  0  0  0  0  0  0  0  0  0  0
    7.8742   14.0869    4.9304 H   0  0  0  0  0  0  0  0  0  0  0  0
    7.1553   14.4026    7.3996 C   0  0  0  0  0  0  0  0  0  0  0  0
    9.1543   13.6761    7.2621 H   0  0  0  0  0  0  0  0  0  0  0  0
    7.9521   12.3989    7.4562 H   0  0  0  0  0  0  0  0  0  0  0  0
    5.7171   14.0816    7.0085 C   0  0  0  0  0  0  0  0  0  0  0  0
    7.4339   15.3654    6.9675 H   0  0  0  0  0  0  0  0  0  0  0  0
    7.2219   14.4924    8.4854 H   0  0  0  0  0  0  0  0  0  0  0  0
    5.5894   14.0823    5.9280 H   0  0  0  0  0  0  0  0  0  0  0  0
    5.0510   14.8363    7.4191 H   0  0  0  0  0  0  0  0  0  0  0  0
    5.4197   13.1136    7.4025 H   0  0  0  0  0  0  0  0  0  0  0  0
    9.6677   11.7988    5.3197 H   0  0  0  0  0  0  0  0  0  0  0  0
    8.9431    7.0294    6.1223 C   0  0  0  0  0  0  0  0  0  0  0  0
    8.2405    6.9125    7.2427 C   0  0  0  0  0  0  0  0  0  0  0  0
    9.5719    6.2366    5.7550 H   0  0  0  0  0  0  0  0  0  0  0  0
    8.9129    7.9135    5.5121 H   0  0  0  0  0  0  0  0  0  0  0  0
    7.3742    7.9240    7.8320 C   0  0  0  0  0  0  0  0  0  0  0  0
    8.2886    5.9990    7.8188 H   0  0  0  0  0  0  0  0  0  0  0  0
    7.1274    9.1671    7.2464 C   0  0  0  0  0  0  0  0  0  0  0  0
    6.3077   10.0858    7.8681 C   0  0  0  0  0  0  0  0  0  0  0  0
    5.7195    9.7979    9.0952 C   0  0  0  0  0  0  0  0  0  0  0  0
    6.7534    7.6326    9.0469 C   0  0  0  0  0  0  0  0  0  0  0  0
    5.9406    8.5567    9.6735 C   0  0  0  0  0  0  0  0  0  0  0  0
    6.8900    6.6678    9.5102 H   0  0  0  0  0  0  0  0  0  0  0  0
    5.4673    8.2864   10.6026 H   0  0  0  0  0  0  0  0  0  0  0  0
    6.0956   11.0283    7.3881 H   0  0  0  0  0  0  0  0  0  0  0  0
    7.5543    9.4079    6.2844 H   0  0  0  0  0  0  0  0  0  0  0  0
    4.8463   10.8124    9.7852 C   0  0  0  0  0  0  0  0  0  0  0  0
    3.9617   11.4526    8.8141 N   0  0  0  0  0  0  0  0  0  0  0  0
    5.4820   11.5950   10.2144 H   0  0  0  0  0  0  0  0  0  0  0  0
    4.2971   10.3060   10.5902 H   0  0  0  0  0  0  0  0  0  0  0  0
    3.1543   12.5022    9.2898 C   0  0  0  0  0  0  0  0  0  0  0  0
    3.0459   10.5340    8.1570 C   0  0  0  0  0  0  0  0  0  0  0  0
    1.6532   10.7668    8.7872 C   0  0  0  0  0  0  0  0  0  0  0  0
    3.3697    9.5090    8.3247 H   0  0  0  0  0  0  0  0  0  0  0  0
    3.0186   10.7397    7.0914 H   0  0  0  0  0  0  0  0  0  0  0  0
    1.8641   11.8397    9.7885 N   0  0  0  0  0  0  0  0  0  0  0  0
    1.3012    9.8478    9.2487 H   0  0  0  0  0  0  0  0  0  0  0  0
    0.9356   11.1159    8.0452 H   0  0  0  0  0  0  0  0  0  0  0  0
    2.8499   13.1517    8.4605 H   0  0  0  0  0  0  0  0  0  0  0  0
    3.6254   13.0849   10.0815 H   0  0  0  0  0  0  0  0  0  0  0  0
    0.7366   12.7721    9.9627 C   0  0  0  0  0  0  0  0  0  0  0  0
   -0.4237   12.1386   10.7293 C   0  0  0  0  0  0  0  0  0  0  0  0
    0.4171   13.0934    8.9689 H   0  0  0  0  0  0  0  0  0  0  0  0
    1.1003   13.6480   10.5040 H   0  0  0  0  0  0  0  0  0  0  0  0
   -0.2145   12.1311   12.2465 C   0  0  0  0  0  0  0  0  0  0  0  0
   -0.5787   11.1193   10.3748 H   0  0  0  0  0  0  0  0  0  0  0  0
   -1.3300   12.7037   10.5075 H   0  0  0  0  0  0  0  0  0  0  0  0
   -0.3869   13.5106   12.8724 C   0  0  0  0  0  0  0  0  0  0  0  0
    0.7727   11.7412   12.4968 H   0  0  0  0  0  0  0  0  0  0  0  0
   -0.9473   11.4547   12.6867 H   0  0  0  0  0  0  0  0  0  0  0  0
   -0.2753   13.4458   13.9509 H   0  0  0  0  0  0  0  0  0  0  0  0
   -1.3765   13.9058   12.6567 H   0  0  0  0  0  0  0  0  0  0  0  0
    0.3514   14.2190   12.5030 H   0  0  0  0  0  0  0  0  0  0  0  0
    2.0674   11.3926   10.6876 H   0  0  0  0  0  0  0  0  0  0  0  0
   15.5984   -0.9908   13.2747 C   0  0  0  0  0  0  0  0  0  0  0  0
   14.6439   -0.1031   13.5272 C   0  0  0  0  0  0  0  0  0  0  0  0
   16.1177   -1.4941   14.0718 H   0  0  0  0  0  0  0  0  0  0  0  0
   15.9017   -1.2552   12.2764 H   0  0  0  0  0  0  0  0  0  0  0  0
   13.8649    0.6446   12.5482 C   0  0  0  0  0  0  0  0  0  0  0  0
   14.3902    0.1113   14.5583 H   0  0  0  0  0  0  0  0  0  0  0  0
   14.0386    0.5131   11.1695 C   0  0  0  0  0  0  0  0  0  0  0  0
   13.2719    1.2436   10.2852 C   0  0  0  0  0  0  0  0  0  0  0  0
   12.2999    2.1260   10.7426 C   0  0  0  0  0  0  0  0  0  0  0  0
   12.8931    1.5396   12.9987 C   0  0  0  0  0  0  0  0  0  0  0  0
   12.1230    2.2672   12.1129 C   0  0  0  0  0  0  0  0  0  0  0  0
   12.7356    1.6590   14.0612 H   0  0  0  0  0  0  0  0  0  0  0  0
   11.3709    2.9445   12.4886 H   0  0  0  0  0  0  0  0  0  0  0  0
   13.4179    1.1339    9.2219 H   0  0  0  0  0  0  0  0  0  0  0  0
   14.7818   -0.1670   10.7842 H   0  0  0  0  0  0  0  0  0  0  0  0
   11.4799    2.9399    9.7783 C   0  0  0  0  0  0  0  0  0  0  0  0
   11.2622    2.2139    8.5353 N   0  0  0  0  0  0  0  0  0  0  0  0
   12.0443    3.8438    9.5221 H   0  0  0  0  0  0  0  0  0  0  0  0
   10.5441    3.2580   10.2507 H   0  0  0  0  0  0  0  0  0  0  0  0
   10.7339    2.9685    7.4538 C   0  0  0  0  0  0  0  0  0  0  0  0
   10.4199    1.0265    8.6188 C   0  0  0  0  0  0  0  0  0  0  0  0
    9.0684    1.3786    7.9512 C   0  0  0  0  0  0  0  0  0  0  0  0
   10.2968    0.7256    9.6565 H   0  0  0  0  0  0  0  0  0  0  0  0
   10.9108    0.2121    8.0772 H   0  0  0  0  0  0  0  0  0  0  0  0
    9.2395    2.7674    7.4646 N   0  0  0  0  0  0  0  0  0  0  0  0
    8.2336    1.3509    8.6514 H   0  0  0  0  0  0  0  0  0  0  0  0
    8.8576    0.7202    7.1095 H   0  0  0  0  0  0  0  0  0  0  0  0
   11.1110    2.5411    6.5205 H   0  0  0  0  0  0  0  0  0  0  0  0
   10.9795    4.0281    7.5188 H   0  0  0  0  0  0  0  0  0  0  0  0
    8.5520    3.1014    6.1915 C   0  0  0  0  0  0  0  0  0  0  0  0
    9.2367    2.5412    4.9452 C   0  0  0  0  0  0  0  0  0  0  0  0
    8.4933    4.1868    6.1234 H   0  0  0  0  0  0  0  0  0  0  0  0
    7.5282    2.7283    6.2364 H   0  0  0  0  0  0  0  0  0  0  0  0
    8.4061    2.7848    3.6826 C   0  0  0  0  0  0  0  0  0  0  0  0
    9.3934    1.4665    5.0530 H   0  0  0  0  0  0  0  0  0  0  0  0
   10.2072    3.0201    4.7927 H   0  0  0  0  0  0  0  0  0  0  0  0
    8.2672    4.2636    3.3454 C   0  0  0  0  0  0  0  0  0  0  0  0
    7.4122    2.3588    3.7998 H   0  0  0  0  0  0  0  0  0  0  0  0
    8.8921    2.2707    2.8511 H   0  0  0  0  0  0  0  0  0  0  0  0
    9.2416    4.7481    3.2846 H   0  0  0  0  0  0  0  0  0  0  0  0
    7.6593    4.7596    4.0966 H   0  0  0  0  0  0  0  0  0  0  0  0
    7.7628    4.3626    2.3884 H   0  0  0  0  0  0  0  0  0  0  0  0
    8.8538    3.3803    8.2170 H   0  0  0  0  0  0  0  0  0  0  0  0
    7.7603    9.3518    3.4257 C   0  0  0  0  0  0  0  0  0  0  0  0
    7.1339    8.2172    3.1336 C   0  0  0  0  0  0  0  0  0  0  0  0
    8.7972    9.3455    3.7272 H   0  0  0  0  0  0  0  0  0  0  0  0
    7.2747   10.3097    3.3575 H   0  0  0  0  0  0  0  0  0  0  0  0
    5.7543    8.1017    2.6802 C   0  0  0  0  0  0  0  0  0  0  0  0
    7.6563    7.2727    3.2223 H   0  0  0  0  0  0  0  0  0  0  0  0
    5.2037    6.8290    2.5140 C   0  0  0  0  0  0  0  0  0  0  0  0
    3.9116    6.6669    2.0496 C   0  0  0  0  0  0  0  0  0  0  0  0
    3.1273    7.7775    1.7377 C   0  0  0  0  0  0  0  0  0  0  0  0
    4.9620    9.2113    2.3752 C   0  0  0  0  0  0  0  0  0  0  0  0
    3.6687    9.0477    1.9168 C   0  0  0  0  0  0  0  0  0  0  0  0
    5.3444   10.2141    2.4775 H   0  0  0  0  0  0  0  0  0  0  0  0
    3.0931    9.9301    1.6787 H   0  0  0  0  0  0  0  0  0  0  0  0
    3.5503    5.6611    1.8902 H   0  0  0  0  0  0  0  0  0  0  0  0
    5.7851    5.9454    2.7246 H   0  0  0  0  0  0  0  0  0  0  0  0
    1.7166    7.6176    1.2267 C   0  0  0  0  0  0  0  0  0  0  0  0
    0.7546    7.0761    2.1887 N   0  0  0  0  0  0  0  0  0  0  0  0
    1.7044    6.9660    0.3519 H   0  0  0  0  0  0  0  0  0  0  0  0
    1.3373    8.5978    0.9211 H   0  0  0  0  0  0  0  0  0  0  0  0
    0.9177    7.5041    3.5323 C   0  0  0  0  0  0  0  0  0  0  0  0
    0.5867    5.6306    2.2572 C   0  0  0  0  0  0  0  0  0  0  0  0
    1.1698    5.1805    3.6161 C   0  0  0  0  0  0  0  0  0  0  0  0
    1.0842    5.1408    1.4221 H   0  0  0  0  0  0  0  0  0  0  0  0
   -0.4815    5.3987    2.2043 H   0  0  0  0  0  0  0  0  0  0  0  0
    1.7251    6.4188    4.2087 N   0  0  0  0  0  0  0  0  0  0  0  0
    1.9544    4.4304    3.5143 H   0  0  0  0  0  0  0  0  0  0  0  0
    0.3964    4.7951    4.2795 H   0  0  0  0  0  0  0  0  0  0  0  0
   -0.0515    7.5294    4.0454 H   0  0  0  0  0  0  0  0  0  0  0  0
    1.4069    8.4758    3.6004 H   0  0  0  0  0  0  0  0  0  0  0  0
    1.7345    6.4559    5.6851 C   0  0  0  0  0  0  0  0  0  0  0  0
    2.3825    7.7270    6.2270 C   0  0  0  0  0  0  0  0  0  0  0  0
    2.2753    5.5738    6.0330 H   0  0  0  0  0  0  0  0  0  0  0  0
    0.7006    6.3889    6.0310 H   0  0  0  0  0  0  0  0  0  0  0  0
    3.7787    8.0005    5.6618 C   0  0  0  0  0  0  0  0  0  0  0  0
    2.4564    7.6060    7.3096 H   0  0  0  0  0  0  0  0  0  0  0  0
    1.7409    8.5885    6.0239 H   0  0  0  0  0  0  0  0  0  0  0  0
    4.7650    6.8814    5.9631 C   0  0  0  0  0  0  0  0  0  0  0  0
    4.1624    8.9134    6.1175 H   0  0  0  0  0  0  0  0  0  0  0  0
    3.7323    8.1909    4.5876 H   0  0  0  0  0  0  0  0  0  0  0  0
    4.4850    5.9378    5.5035 H   0  0  0  0  0  0  0  0  0  0  0  0
    4.8242    6.7359    7.0379 H   0  0  0  0  0  0  0  0  0  0  0  0
    5.7527    7.1497    5.5994 H   0  0  0  0  0  0  0  0  0  0  0  0
    2.6997    6.5018    3.8779 H   0  0  0  0  0  0  0  0  0  0  0  0
    7.5958   12.3125   11.3274 C   0  0  0  0  0  0  0  0  0  0  0  0
    8.4764   12.0425   10.3708 C   0  0  0  0  0  0  0  0  0  0  0  0
    7.2620   13.3209   11.5057 H   0  0  0  0  0  0  0  0  0  0  0  0
    7.2081   11.5611   11.9926 H   0  0  0  0  0  0  0  0  0  0  0  0
    9.0437   10.7389   10.0605 C   0  0  0  0  0  0  0  0  0  0  0  0
    8.8554   12.8549    9.7678 H   0  0  0  0  0  0  0  0  0  0  0  0
    9.9478   10.6167    9.0073 C   0  0  0  0  0  0  0  0  0  0  0  0
   10.5633    9.4153    8.7205 C   0  0  0  0  0  0  0  0  0  0  0  0
   10.2723    8.2772    9.4587 C   0  0  0  0  0  0  0  0  0  0  0  0
    8.7339    9.5874   10.7801 C   0  0  0  0  0  0  0  0  0  0  0  0
    9.3278    8.3768   10.4803 C   0  0  0  0  0  0  0  0  0  0  0  0
    8.0081    9.6281   11.5748 H   0  0  0  0  0  0  0  0  0  0  0  0
    8.9900    7.4862   10.9919 H   0  0  0  0  0  0  0  0  0  0  0  0
   11.2841    9.3645    7.9180 H   0  0  0  0  0  0  0  0  0  0  0  0
   10.1863   11.4881    8.4179 H   0  0  0  0  0  0  0  0  0  0  0  0
   10.9512    6.9607    9.1665 C   0  0  0  0  0  0  0  0  0  0  0  0
   11.9839    6.5406   10.1157 N   0  0  0  0  0  0  0  0  0  0  0  0
   11.4362    7.0123    8.1881 H   0  0  0  0  0  0  0  0  0  0  0  0
   10.2070    6.1617    9.1474 H   0  0  0  0  0  0  0  0  0  0  0  0
   11.5094    6.1051   11.3857 C   0  0  0  0  0  0  0  0  0  0  0  0
   13.0173    7.5363   10.4110 C   0  0  0  0  0  0  0  0  0  0  0  0
   12.8253    7.9400   11.8870 C   0  0  0  0  0  0  0  0  0  0  0  0
   12.9198    8.4111    9.7690 H   0  0  0  0  0  0  0  0  0  0  0  0
   14.0022    7.0885   10.2566 H   0  0  0  0  0  0  0  0  0  0  0  0
   11.5302    7.3309   12.2573 N   0  0  0  0  0  0  0  0  0  0  0  0
   12.8102    9.0217   12.0150 H   0  0  0  0  0  0  0  0  0  0  0  0
   13.6013    7.5078   12.5206 H   0  0  0  0  0  0  0  0  0  0  0  0
   12.2195    5.3938   11.8264 H   0  0  0  0  0  0  0  0  0  0  0  0
   10.5086    5.6720   11.3477 H   0  0  0  0  0  0  0  0  0  0  0  0
   11.3048    7.0730   13.6897 C   0  0  0  0  0  0  0  0  0  0  0  0
   10.9234    8.3557   14.4257 C   0  0  0  0  0  0  0  0  0  0  0  0
   12.2172    6.6350   14.1014 H   0  0  0  0  0  0  0  0  0  0  0  0
   10.4946    6.3422   13.7668 H   0  0  0  0  0  0  0  0  0  0  0  0
    9.4289    8.6703   14.2955 C   0  0  0  0  0  0  0  0  0  0  0  0
   11.5081    9.1888   14.0320 H   0  0  0  0  0  0  0  0  0  0  0  0
   11.1810    8.2496   15.4795 H   0  0  0  0  0  0  0  0  0  0  0  0
    9.1590   10.1625   14.4516 C   0  0  0  0  0  0  0  0  0  0  0  0
    8.8726    8.1136   15.0525 H   0  0  0  0  0  0  0  0  0  0  0  0
    9.0589    8.3405   13.3242 H   0  0  0  0  0  0  0  0  0  0  0  0
    8.0896   10.3565   14.4322 H   0  0  0  0  0  0  0  0  0  0  0  0
    9.6312   10.7243   13.6479 H   0  0  0  0  0  0  0  0  0  0  0  0
    9.5545   10.5266   15.3963 H   0  0  0  0  0  0  0  0  0  0  0  0
   10.7750    7.9510   11.9106 H   0  0  0  0  0  0  0  0  0  0  0  0
  1  3  1  0  0  0  0
  1  4  1  0  0  0  0
  1  5  1  0  0  0  0
  2  6  1  0  0  0  0
  2  7  1  0  0  0  0
  2  8  1  0  0  0  0
  1  9  1  0  0  0  0
  2 10  1  0  0  0  0
  9 11  1  0  0  0  0
 10 11  1  0  0  0  0
  9 12  2  0  0  0  0
  9 13  2  0  0  0  0
 10 14  2  0  0  0  0
 10 15  2  0  0  0  0
 16 18  1  0  0  0  0
 16 19  1  0  0  0  0
 16 20  1  0  0  0  0
 17 21  1  0  0  0  0
 17 22  1  0  0  0  0
 17 23  1  0  0  0  0
 16 24  1  0  0  0  0
 17 25  1  0  0  0  0
 24 26  1  0  0  0  0
 25 26  1  0  0  0  0
 24 27  2  0  0  0  0
 24 28  2  0  0  0  0
 25 29  2  0  0  0  0
 25 30  2  0  0  0  0
 31 33  1  0  0  0  0
 31 34  1  0  0  0  0
 31 35  1  0  0  0  0
 32 36  1  0  0  0  0
 32 37  1  0  0  0  0
 32 38  1  0  0  0  0
 31 39  1  0  0  0  0
 32 40  1  0  0  0  0
 39 41  1  0  0  0  0
 40 41  1  0  0  0  0
 39 42  2  0  0  0  0
 39 43  2  0  0  0  0
 40 44  2  0  0  0  0
 40 45  2  0  0  0  0
 46 48  1  0  0  0  0
 46 49  1  0  0  0  0
 46 50  1  0  0  0  0
 47 51  1  0  0  0  0
 47 52  1  0  0  0  0
 47 53  1  0  0  0  0
 46 54  1  0  0  0  0
 47 55  1  0  0  0  0
 54 56  1  0  0  0  0
 55 56  1  0  0  0  0
 54 57  2  0  0  0  0
 54 58  2  0  0  0  0
 55 59  2  0  0  0  0
 55 60  2  0  0  0  0
 61 63  1  0  0  0  0
 61 64  1  0  0  0  0
 61 65  1  0  0  0  0
 62 66  1  0  0  0  0
 62 67  1  0  0  0  0
 62 68  1  0  0  0  0
 61 69  1  0  0  0  0
 62 70  1  0  0  0  0
 69 71  1  0  0  0  0
 70 71  1  0  0  0  0
 69 72  2  0  0  0  0
 69 73  2  0  0  0  0
 70 74  2  0  0  0  0
 70 75  2  0  0  0  0
 76 77  2  0  0  0  0
 76 78  1  0  0  0  0
 76 79  1  0  0  0  0
 77 80  1  0  0  0  0
 77 81  1  0  0  0  0
 80 82  4  0  0  0  0
 82 83  4  0  0  0  0
 83 84  4  0  0  0  0
 80 85  4  0  0  0  0
 84 86  4  0  0  0  0
 85 86  4  0  0  0  0
 85 87  1  0  0  0  0
 86 88  1  0  0  0  0
 83 89  1  0  0  0  0
 82 90  1  0  0  0  0
 84 91  1  0  0  0  0
 91 92  1  0  0  0  0
 91 93  1  0  0  0  0
 91 94  1  0  0  0  0
 92 95  1  0  0  0  0
 92 96  1  0  0  0  0
 96 97  1  0  0  0  0
 96 98  1  0  0  0  0
 96 99  1  0  0  0  0
 95100  1  0  0  0  0
 97100  1  0  0  0  0
 97101  1  0  0  0  0
 97102  1  0  0  0  0
 95103  1  0  0  0  0
 95104  1  0  0  0  0
100105  1  0  0  0  0
105106  1  0  0  0  0
105107  1  0  0  0  0
105108  1  0  0  0  0
106109  1  0  0  0  0
106110  1  0  0  0  0
106111  1  0  0  0  0
109112  1  0  0  0  0
109113  1  0  0  0  0
109114  1  0  0  0  0
112115  1  0  0  0  0
112116  1  0  0  0  0
112117  1  0  0  0  0
100118  1  0  0  0  0
119120  2  0  0  0  0
119121  1  0  0  0  0
119122  1  0  0  0  0
120123  1  0  0  0  0
120124  1  0  0  0  0
123125  4  0  0  0  0
125126  4  0  0  0  0
126127  4  0  0  0  0
123128  4  0  0  0  0
127129  4  0  0  0  0
128129  4  0  0  0  0
128130  1  0  0  0  0
129131  1  0  0  0  0
126132  1  0  0  0  0
125133  1  0  0  0  0
127134  1  0  0  0  0
134135  1  0  0  0  0
134136  1  0  0  0  0
134137  1  0  0  0  0
135138  1  0  0  0  0
135139  1  0  0  0  0
139140  1  0  0  0  0
139141  1  0  0  0  0
139142  1  0  0  0  0
138143  1  0  0  0  0
140143  1  0  0  0  0
140144  1  0  0  0  0
140145  1  0  0  0  0
138146  1  0  0  0  0
138147  1  0  0  0  0
143148  1  0  0  0  0
148149  1  0  0  0  0
148150  1  0  0  0  0
148151  1  0  0  0  0
149152  1  0  0  0  0
149153  1  0  0  0  0
149154  1  0  0  0  0
152155  1  0  0  0  0
152156  1  0  0  0  0
152157  1  0  0  0  0
155158  1  0  0  0  0
155159  1  0  0  0  0
155160  1  0  0  0  0
143161  1  0  0  0  0
162163  2  0  0  0  0
162164  1  0  0  0  0
162165  1  0  0  0  0
163166  1  0  0  0  0
163167  1  0  0  0  0
166168  4  0  0  0  0
168169  4  0  0  0  0
169170  4  0  0  0  0
166171  4  0  0  0  0
170172  4  0  0  0  0
171172  4  0  0  0  0
171173  1  0  0  0  0
172174  1  0  0  0  0
169175  1  0  0  0  0
168176  1  0  0  0  0
170177  1  0  0  0  0
177178  1  0  0  0  0
177179  1  0  0  0  0
177180  1  0  0  0  0
178181  1  0  0  0  0
178182  1  0  0  0  0
182183  1  0  0  0  0
182184  1  0  0  0  0
182185  1  0  0  0  0
181186  1  0  0  0  0
183186  1  0  0  0  0
183187  1  0  0  0  0
183188  1  0  0  0  0
181189  1  0  0  0  0
181190  1  0  0  0  0
186191  1  0  0  0  0
191192  1  0  0  0  0
191193  1  0  0  0  0
191194  1  0  0  0  0
192195  1  0  0  0  0
192196  1  0  0  0  0
192197  1  0  0  0  0
195198  1  0  0  0  0
195199  1  0  0  0  0
195200  1  0  0  0  0
198201  1  0  0  0  0
198202  1  0  0  0  0
198203  1  0  0  0  0
186204  1  0  0  0  0
205206  2  0  0  0  0
205207  1  0  0  0  0
205208  1  0  0  0  0
206209  1  0  0  0  0
206210  1  0  0  0  0
209211  4  0  0  0  0
211212  4  0  0  0  0
212213  4  0  0  0  0
209214  4  0  0  0  0
213215  4  0  0  0  0
214215  4  0  0  0  0
214216  1  0  0  0  0
215217  1  0  0  0  0
212218  1  0  0  0  0
211219  1  0  0  0  0
213220  1  0  0  0  0
220221  1  0  0  0  0
220222  1  0  0  0  0
220223  1  0  0  0  0
221224  1  0  0  0  0
221225  1  0  0  0  0
225226  1  0  0  0  0
225227  1  0  0  0  0
225228  1  0  0  0  0
224229  1  0  0  0  0
226229  1  0  0  0  0
226230  1  0  0  0  0
226231  1  0  0  0  0
224232  1  0  0  0  0
224233  1  0  0  0  0
229234  1  0  0  0  0
234235  1  0  0  0  0
234236  1  0  0  0  0
234237  1  0  0  0  0
235238  1  0  0  0  0
235239  1  0  0  0  0
235240  1  0  0  0  0
238241  1  0  0  0  0
238242  1  0  0  0  0
238243  1  0  0  0  0
241244  1  0  0  0  0
241245  1  0  0  0  0
241246  1  0  0  0  0
229247  1  0  0  0  0
248249  2  0  0  0  0
248250  1  0  0  0  0
248251  1  0  0  0  0
249252  1  0  0  0  0
249253  1  0  0  0  0
252254  4  0  0  0  0
254255  4  0  0  0  0
255256  4  0  0  0  0
252257  4  0  0  0  0
256258  4  0  0  0  0
257258  4  0  0  0  0
257259  1  0  0  0  0
258260  1  0  0  0  0
255261  1  0  0  0  0
254262  1  0  0  0  0
256263  1  0  0  0  0
263264  1  0  0  0  0
263265  1  0  0  0  0
263266  1  0  0  0  0
264267  1  0  0  0  0
264268  1  0  0  0  0
268269  1  0  0  0  0
268270  1  0  0  0  0
268271  1  0  0  0  0
267272  1  0  0  0  0
269272  1  0  0  0  0
269273  1  0  0  0  0
269274  1  0  0  0  0
267275  1  0  0  0  0
267276  1  0  0  0  0
272277  1  0  0  0  0
277278  1  0  0  0  0
277279  1  0  0  0  0
277280  1  0  0  0  0
278281  1  0  0  0  0
278282  1  0  0  0  0
278283  1  0  0  0  0
281284  1  0  0  0  0
281285  1  0  0  0  0
281286  1  0  0  0  0
284287  1  0  0  0  0
284288  1  0  0  0  0
284289  1  0  0  0  0
272290  1  0  0  0  0
M  END
