 xtb: 6.7.1 (edcfbbe)
          10212513373D

116116  0     0  0            999 V2000
    6.6836   11.2674    8.3694 C   0  0  0  0  0  0  0  0  0  0  0  0
    4.9103    6.7472   10.7216 C   0  0  0  0  0  0  0  0  0  0  0  0
    7.7969   11.5495    9.0650 F   0  0  0  0  0  0  0  0  0  0  0  0
    6.9324   11.6809    7.1061 F   0  0  0  0  0  0  0  0  0  0  0  0
    5.7149   12.0354    8.8436 F   0  0  0  0  0  0  0  0  0  0  0  0
    4.6991    6.5408   12.0271 F   0  0  0  0  0  0  0  0  0  0  0  0
    3.7650    7.1710   10.2139 F   0  0  0  0  0  0  0  0  0  0  0  0
    5.1922    5.5407   10.2121 F   0  0  0  0  0  0  0  0  0  0  0  0
    6.3050    9.4159    8.3210 S   0  0  0  0  0  0  0  0  0  0  0  0
    6.4340    7.8580   10.5345 S   0  0  0  0  0  0  0  0  0  0  0  0
    6.1195    9.2294    9.8497 N   0  0  0  0  0  0  0  0  0  0  0  0
    5.2090    9.4930    7.3593 O   0  0  0  0  0  0  0  0  0  0  0  0
    7.5425    8.9203    7.7903 O   0  0  0  0  0  0  0  0  0  0  0  0
    7.3882    7.0156    9.8387 O   0  0  0  0  0  0  0  0  0  0  0  0
    6.8238    8.0719   11.8955 O   0  0  0  0  0  0  0  0  0  0  0  0
    3.9308    5.5649    7.2368 C   0  0  0  0  0  0  0  0  0  0  0  0
    1.1101    9.2029    8.3996 C   0  0  0  0  0  0  0  0  0  0  0  0
    3.2046    5.2284    8.2964 F   0  0  0  0  0  0  0  0  0  0  0  0
    3.1987    5.2545    6.1531 F   0  0  0  0  0  0  0  0  0  0  0  0
    4.9932    4.7365    7.2042 F   0  0  0  0  0  0  0  0  0  0  0  0
    0.4436    8.8572    7.2874 F   0  0  0  0  0  0  0  0  0  0  0  0
    0.9042    8.2454    9.3012 F   0  0  0  0  0  0  0  0  0  0  0  0
    0.5235   10.3164    8.8632 F   0  0  0  0  0  0  0  0  0  0  0  0
    4.5244    7.3716    7.2203 S   0  0  0  0  0  0  0  0  0  0  0  0
    2.9416    9.4761    8.0304 S   0  0  0  0  0  0  0  0  0  0  0  0
    3.1329    8.0110    7.4377 N   0  0  0  0  0  0  0  0  0  0  0  0
    5.4709    7.3056    8.3193 O   0  0  0  0  0  0  0  0  0  0  0  0
    5.0531    7.4069    5.8808 O   0  0  0  0  0  0  0  0  0  0  0  0
    3.5217    9.7499    9.2978 O   0  0  0  0  0  0  0  0  0  0  0  0
    2.8719   10.5146    7.0394 O   0  0  0  0  0  0  0  0  0  0  0  0
    0.6718    4.7712    3.2867 C   0  0  0  0  0  0  0  0  0  0  0  0
    0.3198    5.9200    2.7214 C   0  0  0  0  0  0  0  0  0  0  0  0
    0.2342    3.8389    2.9723 H   0  0  0  0  0  0  0  0  0  0  0  0
    1.3976    4.7144    4.0791 H   0  0  0  0  0  0  0  0  0  0  0  0
    0.8452    7.2366    3.0636 C   0  0  0  0  0  0  0  0  0  0  0  0
   -0.4089    5.9170    1.9195 H   0  0  0  0  0  0  0  0  0  0  0  0
    0.5457    8.3289    2.2470 C   0  0  0  0  0  0  0  0  0  0  0  0
    1.0384    9.5880    2.5333 C   0  0  0  0  0  0  0  0  0  0  0  0
    1.8484    9.7977    3.6452 C   0  0  0  0  0  0  0  0  0  0  0  0
    1.6383    7.4598    4.1909 C   0  0  0  0  0  0  0  0  0  0  0  0
    2.1465    8.7145    4.4699 C   0  0  0  0  0  0  0  0  0  0  0  0
    1.8467    6.6614    4.8805 H   0  0  0  0  0  0  0  0  0  0  0  0
    2.7204    8.8592    5.3735 H   0  0  0  0  0  0  0  0  0  0  0  0
    0.7794   10.4224    1.8953 H   0  0  0  0  0  0  0  0  0  0  0  0
   -0.0856    8.1875    1.3807 H   0  0  0  0  0  0  0  0  0  0  0  0
    2.4359   11.1512    3.9403 C   0  0  0  0  0  0  0  0  0  0  0  0
    3.8541   11.2769    3.5760 N   0  0  0  0  0  0  0  0  0  0  0  0
    2.3414   11.3568    5.0068 H   0  0  0  0  0  0  0  0  0  0  0  0
    1.8939   11.9206    3.3794 H   0  0  0  0  0  0  0  0  0  0  0  0
    4.3183   10.4036    2.5676 C   0  0  0  0  0  0  0  0  0  0  0  0
    4.8409   11.1934    4.6535 C   0  0  0  0  0  0  0  0  0  0  0  0
    5.6990    9.9423    4.3667 C   0  0  0  0  0  0  0  0  0  0  0  0
    4.3520   11.1105    5.6247 H   0  0  0  0  0  0  0  0  0  0  0  0
    5.4610   12.0933    4.6488 H   0  0  0  0  0  0  0  0  0  0  0  0
    4.9589    9.2366    3.2974 N   0  0  0  0  0  0  0  0  0  0  0  0
    5.7917    9.3163    5.2513 H   0  0  0  0  0  0  0  0  0  0  0  0
    6.6845   10.2116    3.9837 H   0  0  0  0  0  0  0  0  0  0  0  0
    5.1291   10.8700    1.9916 H   0  0  0  0  0  0  0  0  0  0  0  0
    3.5252   10.0677    1.8979 H   0  0  0  0  0  0  0  0  0  0  0  0
    5.7466    8.3473    2.4254 C   0  0  0  0  0  0  0  0  0  0  0  0
    5.9193    6.9490    3.0064 C   0  0  0  0  0  0  0  0  0  0  0  0
    6.7224    8.8132    2.2639 H   0  0  0  0  0  0  0  0  0  0  0  0
    5.2276    8.2814    1.4636 H   0  0  0  0  0  0  0  0  0  0  0  0
    4.6842    6.0686    2.8290 C   0  0  0  0  0  0  0  0  0  0  0  0
    6.1393    7.0224    4.0707 H   0  0  0  0  0  0  0  0  0  0  0  0
    6.7697    6.4757    2.5129 H   0  0  0  0  0  0  0  0  0  0  0  0
    4.9609    4.6625    3.3448 C   0  0  0  0  0  0  0  0  0  0  0  0
    4.4003    6.0241    1.7732 H   0  0  0  0  0  0  0  0  0  0  0  0
    3.8486    6.4858    3.3916 H   0  0  0  0  0  0  0  0  0  0  0  0
    4.0722    4.0441    3.2589 H   0  0  0  0  0  0  0  0  0  0  0  0
    5.2540    4.7082    4.3894 H   0  0  0  0  0  0  0  0  0  0  0  0
    5.7652    4.1967    2.7788 H   0  0  0  0  0  0  0  0  0  0  0  0
    4.2145    8.6939    3.7710 H   0  0  0  0  0  0  0  0  0  0  0  0
    9.3579    9.4401    3.5188 C   0  0  0  0  0  0  0  0  0  0  0  0
    9.3917    8.1342    3.2784 C   0  0  0  0  0  0  0  0  0  0  0  0
    9.6392   10.1558    2.7644 H   0  0  0  0  0  0  0  0  0  0  0  0
    9.0784    9.8409    4.4782 H   0  0  0  0  0  0  0  0  0  0  0  0
    9.0535    7.0802    4.2284 C   0  0  0  0  0  0  0  0  0  0  0  0
    9.7172    7.7825    2.3059 H   0  0  0  0  0  0  0  0  0  0  0  0
    9.3856    5.7578    3.9286 C   0  0  0  0  0  0  0  0  0  0  0  0
    9.1170    4.7412    4.8241 C   0  0  0  0  0  0  0  0  0  0  0  0
    8.4880    5.0068    6.0369 C   0  0  0  0  0  0  0  0  0  0  0  0
    8.3979    7.3347    5.4335 C   0  0  0  0  0  0  0  0  0  0  0  0
    8.1100    6.3149    6.3199 C   0  0  0  0  0  0  0  0  0  0  0  0
    8.1022    8.3301    5.7156 H   0  0  0  0  0  0  0  0  0  0  0  0
    7.5792    6.5622    7.2268 H   0  0  0  0  0  0  0  0  0  0  0  0
    9.3934    3.7254    4.5773 H   0  0  0  0  0  0  0  0  0  0  0  0
    9.8747    5.5300    2.9919 H   0  0  0  0  0  0  0  0  0  0  0  0
    8.2830    3.9103    7.0482 C   0  0  0  0  0  0  0  0  0  0  0  0
    9.2403    3.9130    8.1577 N   0  0  0  0  0  0  0  0  0  0  0  0
    8.3871    2.9369    6.5558 H   0  0  0  0  0  0  0  0  0  0  0  0
    7.2815    3.9753    7.4715 H   0  0  0  0  0  0  0  0  0  0  0  0
    8.9154    4.6089    9.3512 C   0  0  0  0  0  0  0  0  0  0  0  0
   10.5903    4.3293    7.8550 C   0  0  0  0  0  0  0  0  0  0  0  0
   10.6469    5.8245    8.2416 C   0  0  0  0  0  0  0  0  0  0  0  0
   10.8329    4.1609    6.8084 H   0  0  0  0  0  0  0  0  0  0  0  0
   11.2826    3.7528    8.4776 H   0  0  0  0  0  0  0  0  0  0  0  0
    9.6440    5.9520    9.3182 N   0  0  0  0  0  0  0  0  0  0  0  0
   10.3677    6.4555    7.3987 H   0  0  0  0  0  0  0  0  0  0  0  0
   11.6343    6.1087    8.6002 H   0  0  0  0  0  0  0  0  0  0  0  0
    9.3167    4.0595   10.2117 H   0  0  0  0  0  0  0  0  0  0  0  0
    7.8480    4.7831    9.4815 H   0  0  0  0  0  0  0  0  0  0  0  0
   10.1872    6.3195   10.6417 C   0  0  0  0  0  0  0  0  0  0  0  0
   10.8322    7.7022   10.6763 C   0  0  0  0  0  0  0  0  0  0  0  0
   10.9151    5.5543   10.9324 H   0  0  0  0  0  0  0  0  0  0  0  0
    9.3464    6.3163   11.3378 H   0  0  0  0  0  0  0  0  0  0  0  0
    9.8481    8.8477   10.4329 C   0  0  0  0  0  0  0  0  0  0  0  0
   11.6544    7.7680    9.9594 H   0  0  0  0  0  0  0  0  0  0  0  0
   11.2646    7.8230   11.6723 H   0  0  0  0  0  0  0  0  0  0  0  0
   10.5322   10.1946   10.6393 C   0  0  0  0  0  0  0  0  0  0  0  0
    9.0059    8.7585   11.1193 H   0  0  0  0  0  0  0  0  0  0  0  0
    9.4389    8.8052    9.4220 H   0  0  0  0  0  0  0  0  0  0  0  0
   11.3719   10.3106    9.9563 H   0  0  0  0  0  0  0  0  0  0  0  0
   10.9026   10.2834   11.6582 H   0  0  0  0  0  0  0  0  0  0  0  0
    9.8260   10.9968   10.4567 H   0  0  0  0  0  0  0  0  0  0  0  0
    8.8977    6.6571    9.1325 H   0  0  0  0  0  0  0  0  0  0  0  0
  1  3  1  0  0  0  0
  1  4  1  0  0  0  0
  1  5  1  0  0  0  0
  2  6  1  0  0  0  0
  2  7  1  0  0  0  0
  2  8  1  0  0  0  0
  1  9  1  0  0  0  0
  2 10  1  0  0  0  0
  9 11  1  0  0  0  0
 10 11  1  0  0  0  0
  9 12  1  0  0  0  0
  9 13  2  0  0  0  0
 10 14  2  0  0  0  0
 10 15  2  0  0  0  0
 16 18  1  0  0  0  0
 16 19  1  0  0  0  0
 16 20  1  0  0  0  0
 17 21  1  0  0  0  0
 17 22  1  0  0  0  0
 17 23  1  0  0  0  0
 16 24  1  0  0  0  0
 17 25  1  0  0  0  0
 24 26  1  0  0  0  0
 25 26  1  0  0  0  0
 24 27  2  0  0  0  0
 24 28  2  0  0  0  0
 25 29  2  0  0  0  0
 25 30  2  0  0  0  0
 31 32  2  0  0  0  0
 31 33  1  0  0  0  0
 31 34  1  0  0  0  0
 32 35  1  0  0  0  0
 32 36  1  0  0  0  0
 35 37  4  0  0  0  0
 37 38  4  0  0  0  0
 38 39  4  0  0  0  0
 35 40  4  0  0  0  0
 39 41  4  0  0  0  0
 40 41  4  0  0  0  0
 40 42  1  0  0  0  0
 41 43  1  0  0  0  0
 38 44  1  0  0  0  0
 37 45  1  0  0  0  0
 39 46  1  0  0  0  0
 46 47  1  0  0  0  0
 46 48  1  0  0  0  0
 46 49  1  0  0  0  0
 47 50  1  0  0  0  0
 47 51  1  0  0  0  0
 51 52  1  0  0  0  0
 51 53  1  0  0  0  0
 51 54  1  0  0  0  0
 50 55  1  0  0  0  0
 52 55  1  0  0  0  0
 52 56  1  0  0  0  0
 52 57  1  0  0  0  0
 50 58  1  0  0  0  0
 50 59  1  0  0  0  0
 55 60  1  0  0  0  0
 60 61  1  0  0  0  0
 60 62  1  0  0  0  0
 60 63  1  0  0  0  0
 61 64  1  0  0  0  0
 61 65  1  0  0  0  0
 61 66  1  0  0  0  0
 64 67  1  0  0  0  0
 64 68  1  0  0  0  0
 64 69  1  0  0  0  0
 67 70  1  0  0  0  0
 67 71  1  0  0  0  0
 67 72  1  0  0  0  0
 55 73  1  0  0  0  0
 74 75  2  0  0  0  0
 74 76  1  0  0  0  0
 74 77  1  0  0  0  0
 75 78  1  0  0  0  0
 75 79  1  0  0  0  0
 78 80  4  0  0  0  0
 80 81  4  0  0  0  0
 81 82  4  0  0  0  0
 78 83  4  0  0  0  0
 82 84  4  0  0  0  0
 83 84  4  0  0  0  0
 83 85  1  0  0  0  0
 84 86  1  0  0  0  0
 81 87  1  0  0  0  0
 80 88  1  0  0  0  0
 82 89  1  0  0  0  0
 89 90  1  0  0  0  0
 89 91  1  0  0  0  0
 89 92  1  0  0  0  0
 90 93  1  0  0  0  0
 90 94  1  0  0  0  0
 94 95  1  0  0  0  0
 94 96  1  0  0  0  0
 94 97  1  0  0  0  0
 93 98  1  0  0  0  0
 95 98  1  0  0  0  0
 95 99  1  0  0  0  0
 95100  1  0  0  0  0
 93101  1  0  0  0  0
 93102  1  0  0  0  0
 98103  1  0  0  0  0
103104  1  0  0  0  0
103105  1  0  0  0  0
103106  1  0  0  0  0
104107  1  0  0  0  0
104108  1  0  0  0  0
104109  1  0  0  0  0
107110  1  0  0  0  0
107111  1  0  0  0  0
107112  1  0  0  0  0
110113  1  0  0  0  0
110114  1  0  0  0  0
110115  1  0  0  0  0
 98116  1  0  0  0  0
M  END
