 xtb: 6.7.1 (edcfbbe)
          10212513463D

116116  0     0  0            999 V2000
    3.9996    8.4957   10.1931 C   0  0  0  0  0  0  0  0  0  0  0  0
    3.7932    3.8779   11.5928 C   0  0  0  0  0  0  0  0  0  0  0  0
    2.7672    8.5936    9.7090 F   0  0  0  0  0  0  0  0  0  0  0  0
    3.9292    8.3080   11.5077 F   0  0  0  0  0  0  0  0  0  0  0  0
    4.5980    9.6738    9.9831 F   0  0  0  0  0  0  0  0  0  0  0  0
    4.8630    3.1332   11.3053 F   0  0  0  0  0  0  0  0  0  0  0  0
    3.9943    4.4513   12.7722 F   0  0  0  0  0  0  0  0  0  0  0  0
    2.7514    3.0507   11.7091 F   0  0  0  0  0  0  0  0  0  0  0  0
    4.9687    7.1102    9.3528 S   0  0  0  0  0  0  0  0  0  0  0  0
    3.5304    5.1305   10.2222 S   0  0  0  0  0  0  0  0  0  0  0  0
    4.9067    5.9013   10.3558 N   0  0  0  0  0  0  0  0  0  0  0  0
    4.2228    6.8327    8.1475 O   0  0  0  0  0  0  0  0  0  0  0  0
    6.2885    7.6228    9.1732 O   0  0  0  0  0  0  0  0  0  0  0  0
    2.3825    5.9039   10.5457 O   0  0  0  0  0  0  0  0  0  0  0  0
    3.4514    4.3053    9.0393 O   0  0  0  0  0  0  0  0  0  0  0  0
    5.2699    3.9161    0.5701 C   0  0  0  0  0  0  0  0  0  0  0  0
    2.3139    7.2782    0.6449 C   0  0  0  0  0  0  0  0  0  0  0  0
    4.2155    4.0743   -0.2212 F   0  0  0  0  0  0  0  0  0  0  0  0
    6.3278    4.4798   -0.0149 F   0  0  0  0  0  0  0  0  0  0  0  0
    5.5251    2.6091    0.6547 F   0  0  0  0  0  0  0  0  0  0  0  0
    1.2599    7.2062    1.4484 F   0  0  0  0  0  0  0  0  0  0  0  0
    2.3688    8.5150    0.1455 F   0  0  0  0  0  0  0  0  0  0  0  0
    2.1261    6.4354   -0.3640 F   0  0  0  0  0  0  0  0  0  0  0  0
    4.9233    4.6317    2.2915 S   0  0  0  0  0  0  0  0  0  0  0  0
    3.9181    6.8726    1.5216 S   0  0  0  0  0  0  0  0  0  0  0  0
    3.5927    5.4465    2.1244 N   0  0  0  0  0  0  0  0  0  0  0  0
    4.7620    3.4939    3.1398 O   0  0  0  0  0  0  0  0  0  0  0  0
    6.0507    5.4870    2.5824 O   0  0  0  0  0  0  0  0  0  0  0  0
    4.1118    7.8981    2.5059 O   0  0  0  0  0  0  0  0  0  0  0  0
    4.9123    6.8263    0.4862 O   0  0  0  0  0  0  0  0  0  0  0  0
   10.4600    6.5265    8.3331 C   0  0  0  0  0  0  0  0  0  0  0  0
    9.8937    6.2681    7.1620 C   0  0  0  0  0  0  0  0  0  0  0  0
   11.0478    5.7827    8.8425 H   0  0  0  0  0  0  0  0  0  0  0  0
   10.3304    7.4671    8.8392 H   0  0  0  0  0  0  0  0  0  0  0  0
    9.0589    7.1899    6.4002 C   0  0  0  0  0  0  0  0  0  0  0  0
   10.0100    5.2872    6.7206 H   0  0  0  0  0  0  0  0  0  0  0  0
    9.1475    8.5744    6.5397 C   0  0  0  0  0  0  0  0  0  0  0  0
    8.3591    9.4126    5.7761 C   0  0  0  0  0  0  0  0  0  0  0  0
    7.4457    8.8996    4.8603 C   0  0  0  0  0  0  0  0  0  0  0  0
    8.1354    6.6773    5.4881 C   0  0  0  0  0  0  0  0  0  0  0  0
    7.3277    7.5179    4.7444 C   0  0  0  0  0  0  0  0  0  0  0  0
    8.0258    5.6090    5.3855 H   0  0  0  0  0  0  0  0  0  0  0  0
    6.5799    7.0944    4.0865 H   0  0  0  0  0  0  0  0  0  0  0  0
    8.4435   10.4831    5.9022 H   0  0  0  0  0  0  0  0  0  0  0  0
    9.8495    8.9968    7.2411 H   0  0  0  0  0  0  0  0  0  0  0  0
    6.6472    9.8168    3.9709 C   0  0  0  0  0  0  0  0  0  0  0  0
    7.2047    9.9839    2.6241 N   0  0  0  0  0  0  0  0  0  0  0  0
    6.6007   10.8148    4.4147 H   0  0  0  0  0  0  0  0  0  0  0  0
    5.6296    9.4432    3.8465 H   0  0  0  0  0  0  0  0  0  0  0  0
    6.9025    8.9894    1.6703 C   0  0  0  0  0  0  0  0  0  0  0  0
    8.6391   10.1341    2.5313 C   0  0  0  0  0  0  0  0  0  0  0  0
    9.1878    8.7102    2.2520 C   0  0  0  0  0  0  0  0  0  0  0  0
    9.0518   10.5615    3.4419 H   0  0  0  0  0  0  0  0  0  0  0  0
    8.8680   10.7983    1.6930 H   0  0  0  0  0  0  0  0  0  0  0  0
    8.0152    7.9380    1.7732 N   0  0  0  0  0  0  0  0  0  0  0  0
    9.5906    8.2661    3.1605 H   0  0  0  0  0  0  0  0  0  0  0  0
    9.9589    8.7278    1.4840 H   0  0  0  0  0  0  0  0  0  0  0  0
    6.9774    9.4049    0.6595 H   0  0  0  0  0  0  0  0  0  0  0  0
    5.9243    8.5365    1.8114 H   0  0  0  0  0  0  0  0  0  0  0  0
    8.2019    7.1975    0.5118 C   0  0  0  0  0  0  0  0  0  0  0  0
    9.2926    6.1301    0.5746 C   0  0  0  0  0  0  0  0  0  0  0  0
    8.4472    7.9241   -0.2683 H   0  0  0  0  0  0  0  0  0  0  0  0
    7.2403    6.7381    0.2725 H   0  0  0  0  0  0  0  0  0  0  0  0
    9.0558    5.0300    1.6223 C   0  0  0  0  0  0  0  0  0  0  0  0
   10.2668    6.5926    0.7483 H   0  0  0  0  0  0  0  0  0  0  0  0
    9.3246    5.6823   -0.4187 H   0  0  0  0  0  0  0  0  0  0  0  0
    9.9878    5.1304    2.8265 C   0  0  0  0  0  0  0  0  0  0  0  0
    9.2148    4.0590    1.1536 H   0  0  0  0  0  0  0  0  0  0  0  0
    8.0212    5.0551    1.9602 H   0  0  0  0  0  0  0  0  0  0  0  0
    9.8200    6.0384    3.4007 H   0  0  0  0  0  0  0  0  0  0  0  0
   11.0290    5.1071    2.5106 H   0  0  0  0  0  0  0  0  0  0  0  0
    9.8192    4.2874    3.4909 H   0  0  0  0  0  0  0  0  0  0  0  0
    7.7176    7.2586    2.4885 H   0  0  0  0  0  0  0  0  0  0  0  0
   12.2665    1.5766    9.7110 C   0  0  0  0  0  0  0  0  0  0  0  0
   11.2948    2.2812   10.2795 C   0  0  0  0  0  0  0  0  0  0  0  0
   13.1061    1.2212   10.2833 H   0  0  0  0  0  0  0  0  0  0  0  0
   12.2697    1.3239    8.6648 H   0  0  0  0  0  0  0  0  0  0  0  0
   10.1074    2.8209    9.6299 C   0  0  0  0  0  0  0  0  0  0  0  0
   11.3605    2.4990   11.3387 H   0  0  0  0  0  0  0  0  0  0  0  0
    9.2086    3.5765   10.3895 C   0  0  0  0  0  0  0  0  0  0  0  0
    8.0726    4.1132    9.8245 C   0  0  0  0  0  0  0  0  0  0  0  0
    7.7956    3.9154    8.4750 C   0  0  0  0  0  0  0  0  0  0  0  0
    9.8170    2.6257    8.2804 C   0  0  0  0  0  0  0  0  0  0  0  0
    8.6792    3.1675    7.7110 C   0  0  0  0  0  0  0  0  0  0  0  0
   10.4878    2.0453    7.6654 H   0  0  0  0  0  0  0  0  0  0  0  0
    8.4770    3.0140    6.6615 H   0  0  0  0  0  0  0  0  0  0  0  0
    7.3837    4.7013   10.4132 H   0  0  0  0  0  0  0  0  0  0  0  0
    9.4134    3.7424   11.4376 H   0  0  0  0  0  0  0  0  0  0  0  0
    6.5603    4.5669    7.9232 C   0  0  0  0  0  0  0  0  0  0  0  0
    6.2835    4.2450    6.5268 N   0  0  0  0  0  0  0  0  0  0  0  0
    6.7086    5.6483    7.9944 H   0  0  0  0  0  0  0  0  0  0  0  0
    5.7164    4.3189    8.5803 H   0  0  0  0  0  0  0  0  0  0  0  0
    5.3249    5.1134    5.9286 C   0  0  0  0  0  0  0  0  0  0  0  0
    5.7031    2.9268    6.3262 C   0  0  0  0  0  0  0  0  0  0  0  0
    4.1718    3.1170    6.4283 C   0  0  0  0  0  0  0  0  0  0  0  0
    6.0901    2.2216    7.0585 H   0  0  0  0  0  0  0  0  0  0  0  0
    5.9580    2.5927    5.3171 H   0  0  0  0  0  0  0  0  0  0  0  0
    3.9770    4.5837    6.3476 N   0  0  0  0  0  0  0  0  0  0  0  0
    3.7685    2.7596    7.3743 H   0  0  0  0  0  0  0  0  0  0  0  0
    3.6729    2.6381    5.5871 H   0  0  0  0  0  0  0  0  0  0  0  0
    5.3771    5.0270    4.8400 H   0  0  0  0  0  0  0  0  0  0  0  0
    5.4332    6.1461    6.2553 H   0  0  0  0  0  0  0  0  0  0  0  0
    2.8566    5.0028    5.4880 C   0  0  0  0  0  0  0  0  0  0  0  0
    2.7423    6.5212    5.3985 C   0  0  0  0  0  0  0  0  0  0  0  0
    1.9416    4.5905    5.9208 H   0  0  0  0  0  0  0  0  0  0  0  0
    3.0109    4.5803    4.4898 H   0  0  0  0  0  0  0  0  0  0  0  0
    1.3861    6.9355    4.8284 C   0  0  0  0  0  0  0  0  0  0  0  0
    3.5200    6.9112    4.7397 H   0  0  0  0  0  0  0  0  0  0  0  0
    2.8775    6.9534    6.3916 H   0  0  0  0  0  0  0  0  0  0  0  0
    1.3344    8.4406    4.5996 C   0  0  0  0  0  0  0  0  0  0  0  0
    0.5917    6.6405    5.5165 H   0  0  0  0  0  0  0  0  0  0  0  0
    1.2282    6.4201    3.8796 H   0  0  0  0  0  0  0  0  0  0  0  0
    0.3765    8.7299    4.1757 H   0  0  0  0  0  0  0  0  0  0  0  0
    2.1228    8.7359    3.9114 H   0  0  0  0  0  0  0  0  0  0  0  0
    1.4751    8.9700    5.5388 H   0  0  0  0  0  0  0  0  0  0  0  0
    3.7981    4.9368    7.3099 H   0  0  0  0  0  0  0  0  0  0  0  0
  1  3  1  0  0  0  0
  1  4  1  0  0  0  0
  1  5  1  0  0  0  0
  2  6  1  0  0  0  0
  2  7  1  0  0  0  0
  2  8  1  0  0  0  0
  1  9  1  0  0  0  0
  2 10  1  0  0  0  0
  9 11  1  0  0  0  0
 10 11  1  0  0  0  0
  9 12  2  0  0  0  0
  9 13  2  0  0  0  0
 10 14  2  0  0  0  0
 10 15  2  0  0  0  0
 16 18  1  0  0  0  0
 16 19  1  0  0  0  0
 16 20  1  0  0  0  0
 17 21  1  0  0  0  0
 17 22  1  0  0  0  0
 17 23  1  0  0  0  0
 16 24  1  0  0  0  0
 17 25  1  0  0  0  0
 24 26  1  0  0  0  0
 25 26  1  0  0  0  0
 24 27  2  0  0  0  0
 24 28  2  0  0  0  0
 25 29  2  0  0  0  0
 25 30  2  0  0  0  0
 31 32  2  0  0  0  0
 31 33  1  0  0  0  0
 31 34  1  0  0  0  0
 32 35  1  0  0  0  0
 32 36  1  0  0  0  0
 35 37  4  0  0  0  0
 37 38  4  0  0  0  0
 38 39  4  0  0  0  0
 35 40  4  0  0  0  0
 39 41  4  0  0  0  0
 40 41  4  0  0  0  0
 40 42  1  0  0  0  0
 41 43  1  0  0  0  0
 38 44  1  0  0  0  0
 37 45  1  0  0  0  0
 39 46  1  0  0  0  0
 46 47  1  0  0  0  0
 46 48  1  0  0  0  0
 46 49  1  0  0  0  0
 47 50  1  0  0  0  0
 47 51  1  0  0  0  0
 51 52  1  0  0  0  0
 51 53  1  0  0  0  0
 51 54  1  0  0  0  0
 50 55  1  0  0  0  0
 52 55  1  0  0  0  0
 52 56  1  0  0  0  0
 52 57  1  0  0  0  0
 50 58  1  0  0  0  0
 50 59  1  0  0  0  0
 55 60  1  0  0  0  0
 60 61  1  0  0  0  0
 60 62  1  0  0  0  0
 60 63  1  0  0  0  0
 61 64  1  0  0  0  0
 61 65  1  0  0  0  0
 61 66  1  0  0  0  0
 64 67  1  0  0  0  0
 64 68  1  0  0  0  0
 64 69  1  0  0  0  0
 67 70  1  0  0  0  0
 67 71  1  0  0  0  0
 67 72  1  0  0  0  0
 55 73  1  0  0  0  0
 74 75  2  0  0  0  0
 74 76  1  0  0  0  0
 74 77  1  0  0  0  0
 75 78  1  0  0  0  0
 75 79  1  0  0  0  0
 78 80  4  0  0  0  0
 80 81  4  0  0  0  0
 81 82  4  0  0  0  0
 78 83  4  0  0  0  0
 82 84  4  0  0  0  0
 83 84  4  0  0  0  0
 83 85  1  0  0  0  0
 84 86  1  0  0  0  0
 81 87  1  0  0  0  0
 80 88  1  0  0  0  0
 82 89  1  0  0  0  0
 89 90  1  0  0  0  0
 89 91  1  0  0  0  0
 89 92  1  0  0  0  0
 90 93  1  0  0  0  0
 90 94  1  0  0  0  0
 94 95  1  0  0  0  0
 94 96  1  0  0  0  0
 94 97  1  0  0  0  0
 93 98  1  0  0  0  0
 95 98  1  0  0  0  0
 95 99  1  0  0  0  0
 95100  1  0  0  0  0
 93101  1  0  0  0  0
 93102  1  0  0  0  0
 98103  1  0  0  0  0
103104  1  0  0  0  0
103105  1  0  0  0  0
103106  1  0  0  0  0
104107  1  0  0  0  0
104108  1  0  0  0  0
104109  1  0  0  0  0
107110  1  0  0  0  0
107111  1  0  0  0  0
107112  1  0  0  0  0
110113  1  0  0  0  0
110114  1  0  0  0  0
110115  1  0  0  0  0
 98116  1  0  0  0  0
M  END
