 xtb: 6.7.1 (edcfbbe)
          10212513493D

116116  0     0  0            999 V2000
    5.9343    8.1343    6.4580 C   0  0  0  0  0  0  0  0  0  0  0  0
    4.6961    8.9325   11.1468 C   0  0  0  0  0  0  0  0  0  0  0  0
    6.1765    7.5852    5.2527 F   0  0  0  0  0  0  0  0  0  0  0  0
    4.9023    8.9655    6.2895 F   0  0  0  0  0  0  0  0  0  0  0  0
    6.9985    8.8492    6.7887 F   0  0  0  0  0  0  0  0  0  0  0  0
    3.8460    8.0532   11.6877 F   0  0  0  0  0  0  0  0  0  0  0  0
    5.8919    8.7316   11.6793 F   0  0  0  0  0  0  0  0  0  0  0  0
    4.2777   10.1468   11.5146 F   0  0  0  0  0  0  0  0  0  0  0  0
    5.5332    6.7855    7.7138 S   0  0  0  0  0  0  0  0  0  0  0  0
    4.6927    8.7891    9.2681 S   0  0  0  0  0  0  0  0  0  0  0  0
    5.6138    7.5169    9.0847 N   0  0  0  0  0  0  0  0  0  0  0  0
    4.2029    6.3912    7.3219 O   0  0  0  0  0  0  0  0  0  0  0  0
    6.5894    5.8443    7.5201 O   0  0  0  0  0  0  0  0  0  0  0  0
    5.2658   10.0016    8.7941 O   0  0  0  0  0  0  0  0  0  0  0  0
    3.3121    8.5525    8.9383 O   0  0  0  0  0  0  0  0  0  0  0  0
    6.5019    1.6600    6.1955 C   0  0  0  0  0  0  0  0  0  0  0  0
    9.0940    5.8860    7.3454 C   0  0  0  0  0  0  0  0  0  0  0  0
    7.8057    1.4555    5.9885 F   0  0  0  0  0  0  0  0  0  0  0  0
    6.1540    1.0775    7.3326 F   0  0  0  0  0  0  0  0  0  0  0  0
    5.8694    0.9960    5.2046 F   0  0  0  0  0  0  0  0  0  0  0  0
    8.6905    6.7071    6.3716 F   0  0  0  0  0  0  0  0  0  0  0  0
    8.7956    6.3962    8.5254 F   0  0  0  0  0  0  0  0  0  0  0  0
   10.4324    5.8734    7.2745 F   0  0  0  0  0  0  0  0  0  0  0  0
    6.0306    3.5103    6.1145 S   0  0  0  0  0  0  0  0  0  0  0  0
    8.5082    4.1226    6.9750 S   0  0  0  0  0  0  0  0  0  0  0  0
    7.3924    4.2073    5.8369 N   0  0  0  0  0  0  0  0  0  0  0  0
    5.3402    3.5620    4.8303 O   0  0  0  0  0  0  0  0  0  0  0  0
    5.2024    3.6891    7.2534 O   0  0  0  0  0  0  0  0  0  0  0  0
    8.0409    3.4652    8.1471 O   0  0  0  0  0  0  0  0  0  0  0  0
    9.6821    3.5953    6.3370 O   0  0  0  0  0  0  0  0  0  0  0  0
    1.8881   10.3687    5.0875 C   0  0  0  0  0  0  0  0  0  0  0  0
    1.8408    9.8312    3.8741 C   0  0  0  0  0  0  0  0  0  0  0  0
    1.3769   11.2910    5.3048 H   0  0  0  0  0  0  0  0  0  0  0  0
    2.4539    9.9405    5.8970 H   0  0  0  0  0  0  0  0  0  0  0  0
    2.5069    8.6011    3.4593 C   0  0  0  0  0  0  0  0  0  0  0  0
    1.2907   10.3351    3.0882 H   0  0  0  0  0  0  0  0  0  0  0  0
    2.9922    7.6710    4.3784 C   0  0  0  0  0  0  0  0  0  0  0  0
    3.6346    6.5236    3.9563 C   0  0  0  0  0  0  0  0  0  0  0  0
    3.7943    6.2608    2.5998 C   0  0  0  0  0  0  0  0  0  0  0  0
    2.6725    8.3288    2.0996 C   0  0  0  0  0  0  0  0  0  0  0  0
    3.3075    7.1779    1.6756 C   0  0  0  0  0  0  0  0  0  0  0  0
    2.3038    9.0355    1.3698 H   0  0  0  0  0  0  0  0  0  0  0  0
    3.4323    6.9839    0.6206 H   0  0  0  0  0  0  0  0  0  0  0  0
    4.0286    5.8289    4.6862 H   0  0  0  0  0  0  0  0  0  0  0  0
    2.8796    7.8482    5.4353 H   0  0  0  0  0  0  0  0  0  0  0  0
    4.4673    4.9898    2.1713 C   0  0  0  0  0  0  0  0  0  0  0  0
    5.8125    5.2002    1.6068 N   0  0  0  0  0  0  0  0  0  0  0  0
    3.8839    4.5221    1.3695 H   0  0  0  0  0  0  0  0  0  0  0  0
    4.4939    4.3146    3.0324 H   0  0  0  0  0  0  0  0  0  0  0  0
    6.6147    4.0240    1.6486 C   0  0  0  0  0  0  0  0  0  0  0  0
    6.6488    6.2244    2.2270 C   0  0  0  0  0  0  0  0  0  0  0  0
    7.6805    5.4900    3.1147 C   0  0  0  0  0  0  0  0  0  0  0  0
    6.0418    6.9196    2.8012 H   0  0  0  0  0  0  0  0  0  0  0  0
    7.1526    6.7801    1.4305 H   0  0  0  0  0  0  0  0  0  0  0  0
    7.3040    4.0661    2.9858 N   0  0  0  0  0  0  0  0  0  0  0  0
    7.6285    5.7812    4.1611 H   0  0  0  0  0  0  0  0  0  0  0  0
    8.6958    5.6319    2.7465 H   0  0  0  0  0  0  0  0  0  0  0  0
    7.3870    4.0816    0.8747 H   0  0  0  0  0  0  0  0  0  0  0  0
    6.0307    3.1109    1.5370 H   0  0  0  0  0  0  0  0  0  0  0  0
    8.3736    3.0740    3.2274 C   0  0  0  0  0  0  0  0  0  0  0  0
    9.4626    3.0152    2.1600 C   0  0  0  0  0  0  0  0  0  0  0  0
    7.8952    2.0946    3.2983 H   0  0  0  0  0  0  0  0  0  0  0  0
    8.8122    3.3053    4.2009 H   0  0  0  0  0  0  0  0  0  0  0  0
   10.6021    2.0973    2.6168 C   0  0  0  0  0  0  0  0  0  0  0  0
    9.8743    4.0062    1.9662 H   0  0  0  0  0  0  0  0  0  0  0  0
    9.0524    2.6243    1.2256 H   0  0  0  0  0  0  0  0  0  0  0  0
   11.4912    2.7325    3.6794 C   0  0  0  0  0  0  0  0  0  0  0  0
   11.2118    1.8466    1.7454 H   0  0  0  0  0  0  0  0  0  0  0  0
   10.1791    1.1694    3.0036 H   0  0  0  0  0  0  0  0  0  0  0  0
   11.9347    3.6518    3.3034 H   0  0  0  0  0  0  0  0  0  0  0  0
   12.2968    2.0501    3.9363 H   0  0  0  0  0  0  0  0  0  0  0  0
   10.9403    2.9571    4.5886 H   0  0  0  0  0  0  0  0  0  0  0  0
    6.5742    3.8977    3.7225 H   0  0  0  0  0  0  0  0  0  0  0  0
    6.1820    1.1456   10.9381 C   0  0  0  0  0  0  0  0  0  0  0  0
    5.9313    2.2882   10.3093 C   0  0  0  0  0  0  0  0  0  0  0  0
    7.0960    0.6060   10.7619 H   0  0  0  0  0  0  0  0  0  0  0  0
    5.5076    0.7114   11.6581 H   0  0  0  0  0  0  0  0  0  0  0  0
    4.7364    3.1059   10.4781 C   0  0  0  0  0  0  0  0  0  0  0  0
    6.6574    2.6954    9.6204 H   0  0  0  0  0  0  0  0  0  0  0  0
    4.7586    4.4344   10.0466 C   0  0  0  0  0  0  0  0  0  0  0  0
    3.6528    5.2469   10.2050 C   0  0  0  0  0  0  0  0  0  0  0  0
    2.4973    4.7674   10.8141 C   0  0  0  0  0  0  0  0  0  0  0  0
    3.5627    2.6210   11.0582 C   0  0  0  0  0  0  0  0  0  0  0  0
    2.4633    3.4396   11.2280 C   0  0  0  0  0  0  0  0  0  0  0  0
    3.5079    1.5917   11.3783 H   0  0  0  0  0  0  0  0  0  0  0  0
    1.5688    3.0500   11.6964 H   0  0  0  0  0  0  0  0  0  0  0  0
    3.6987    6.2732    9.8728 H   0  0  0  0  0  0  0  0  0  0  0  0
    5.6464    4.8349    9.5837 H   0  0  0  0  0  0  0  0  0  0  0  0
    1.2980    5.6609   10.9857 C   0  0  0  0  0  0  0  0  0  0  0  0
    0.5116    5.8670    9.7631 N   0  0  0  0  0  0  0  0  0  0  0  0
    1.6186    6.6342   11.3571 H   0  0  0  0  0  0  0  0  0  0  0  0
    0.6200    5.2203   11.7266 H   0  0  0  0  0  0  0  0  0  0  0  0
    0.6507    4.9012    8.7382 C   0  0  0  0  0  0  0  0  0  0  0  0
    0.5637    7.1647    9.1078 C   0  0  0  0  0  0  0  0  0  0  0  0
    1.1588    6.9266    7.7051 C   0  0  0  0  0  0  0  0  0  0  0  0
    1.1876    7.8646    9.6620 H   0  0  0  0  0  0  0  0  0  0  0  0
   -0.4492    7.5738    9.0348 H   0  0  0  0  0  0  0  0  0  0  0  0
    1.5624    5.5011    7.6930 N   0  0  0  0  0  0  0  0  0  0  0  0
    2.0315    7.5583    7.5555 H   0  0  0  0  0  0  0  0  0  0  0  0
    0.4191    7.0946    6.9212 H   0  0  0  0  0  0  0  0  0  0  0  0
   -0.3118    4.7434    8.2309 H   0  0  0  0  0  0  0  0  0  0  0  0
    1.0337    3.9575    9.1213 H   0  0  0  0  0  0  0  0  0  0  0  0
    1.4783    4.8761    6.3575 C   0  0  0  0  0  0  0  0  0  0  0  0
    2.2671    3.5762    6.2411 C   0  0  0  0  0  0  0  0  0  0  0  0
    1.8976    5.5896    5.6472 H   0  0  0  0  0  0  0  0  0  0  0  0
    0.4196    4.7208    6.1234 H   0  0  0  0  0  0  0  0  0  0  0  0
    1.6071    2.3287    6.8273 C   0  0  0  0  0  0  0  0  0  0  0  0
    3.2475    3.7183    6.6960 H   0  0  0  0  0  0  0  0  0  0  0  0
    2.4401    3.3957    5.1785 H   0  0  0  0  0  0  0  0  0  0  0  0
    2.4550    1.0977    6.5286 C   0  0  0  0  0  0  0  0  0  0  0  0
    0.6068    2.2011    6.4036 H   0  0  0  0  0  0  0  0  0  0  0  0
    1.5099    2.4118    7.9091 H   0  0  0  0  0  0  0  0  0  0  0  0
    3.4390    1.2154    6.9742 H   0  0  0  0  0  0  0  0  0  0  0  0
    2.5789    0.9637    5.4571 H   0  0  0  0  0  0  0  0  0  0  0  0
    1.9916    0.2041    6.9395 H   0  0  0  0  0  0  0  0  0  0  0  0
    2.5579    5.4709    7.9850 H   0  0  0  0  0  0  0  0  0  0  0  0
  1  3  1  0  0  0  0
  1  4  1  0  0  0  0
  1  5  1  0  0  0  0
  2  6  1  0  0  0  0
  2  7  1  0  0  0  0
  2  8  1  0  0  0  0
  1  9  1  0  0  0  0
  2 10  1  0  0  0  0
  9 11  1  0  0  0  0
 10 11  1  0  0  0  0
  9 12  2  0  0  0  0
  9 13  2  0  0  0  0
 10 14  2  0  0  0  0
 10 15  2  0  0  0  0
 16 18  1  0  0  0  0
 16 19  1  0  0  0  0
 16 20  1  0  0  0  0
 17 21  1  0  0  0  0
 17 22  1  0  0  0  0
 17 23  1  0  0  0  0
 16 24  1  0  0  0  0
 17 25  1  0  0  0  0
 24 26  1  0  0  0  0
 25 26  1  0  0  0  0
 24 27  2  0  0  0  0
 24 28  2  0  0  0  0
 25 29  2  0  0  0  0
 25 30  2  0  0  0  0
 31 32  2  0  0  0  0
 31 33  1  0  0  0  0
 31 34  1  0  0  0  0
 32 35  1  0  0  0  0
 32 36  1  0  0  0  0
 35 37  4  0  0  0  0
 37 38  4  0  0  0  0
 38 39  4  0  0  0  0
 35 40  4  0  0  0  0
 39 41  4  0  0  0  0
 40 41  4  0  0  0  0
 40 42  1  0  0  0  0
 41 43  1  0  0  0  0
 38 44  1  0  0  0  0
 37 45  1  0  0  0  0
 39 46  1  0  0  0  0
 46 47  1  0  0  0  0
 46 48  1  0  0  0  0
 46 49  1  0  0  0  0
 47 50  1  0  0  0  0
 47 51  1  0  0  0  0
 51 52  1  0  0  0  0
 51 53  1  0  0  0  0
 51 54  1  0  0  0  0
 50 55  1  0  0  0  0
 52 55  1  0  0  0  0
 52 56  1  0  0  0  0
 52 57  1  0  0  0  0
 50 58  1  0  0  0  0
 50 59  1  0  0  0  0
 55 60  1  0  0  0  0
 60 61  1  0  0  0  0
 60 62  1  0  0  0  0
 60 63  1  0  0  0  0
 61 64  1  0  0  0  0
 61 65  1  0  0  0  0
 61 66  1  0  0  0  0
 64 67  1  0  0  0  0
 64 68  1  0  0  0  0
 64 69  1  0  0  0  0
 67 70  1  0  0  0  0
 67 71  1  0  0  0  0
 67 72  1  0  0  0  0
 55 73  1  0  0  0  0
 74 75  2  0  0  0  0
 74 76  1  0  0  0  0
 74 77  1  0  0  0  0
 75 78  1  0  0  0  0
 75 79  1  0  0  0  0
 78 80  4  0  0  0  0
 80 81  4  0  0  0  0
 81 82  4  0  0  0  0
 78 83  4  0  0  0  0
 82 84  4  0  0  0  0
 83 84  4  0  0  0  0
 83 85  1  0  0  0  0
 84 86  1  0  0  0  0
 81 87  1  0  0  0  0
 80 88  1  0  0  0  0
 82 89  1  0  0  0  0
 89 90  1  0  0  0  0
 89 91  1  0  0  0  0
 89 92  1  0  0  0  0
 90 93  1  0  0  0  0
 90 94  1  0  0  0  0
 94 95  1  0  0  0  0
 94 96  1  0  0  0  0
 94 97  1  0  0  0  0
 93 98  1  0  0  0  0
 95 98  1  0  0  0  0
 95 99  1  0  0  0  0
 95100  1  0  0  0  0
 93101  1  0  0  0  0
 93102  1  0  0  0  0
 98103  1  0  0  0  0
103104  1  0  0  0  0
103105  1  0  0  0  0
103106  1  0  0  0  0
104107  1  0  0  0  0
104108  1  0  0  0  0
104109  1  0  0  0  0
107110  1  0  0  0  0
107111  1  0  0  0  0
107112  1  0  0  0  0
110113  1  0  0  0  0
110114  1  0  0  0  0
110115  1  0  0  0  0
 98116  1  0  0  0  0
M  END
