 xtb: 6.7.1 (edcfbbe)
          10212513513D

116116  0     0  0            999 V2000
    3.9715    3.2203    6.8059 C   0  0  0  0  0  0  0  0  0  0  0  0
    2.5786    5.5310    3.0451 C   0  0  0  0  0  0  0  0  0  0  0  0
    4.8199    2.4732    6.1347 F   0  0  0  0  0  0  0  0  0  0  0  0
    4.3112    3.2284    8.1018 F   0  0  0  0  0  0  0  0  0  0  0  0
    2.7736    2.6383    6.7613 F   0  0  0  0  0  0  0  0  0  0  0  0
    2.5417    5.4125    1.7117 F   0  0  0  0  0  0  0  0  0  0  0  0
    1.3487    5.3101    3.4870 F   0  0  0  0  0  0  0  0  0  0  0  0
    2.8743    6.8212    3.2941 F   0  0  0  0  0  0  0  0  0  0  0  0
    3.7962    5.0081    6.2516 S   0  0  0  0  0  0  0  0  0  0  0  0
    3.9468    4.3991    3.7512 S   0  0  0  0  0  0  0  0  0  0  0  0
    4.6002    5.2563    4.9087 N   0  0  0  0  0  0  0  0  0  0  0  0
    2.3897    5.1742    6.0062 O   0  0  0  0  0  0  0  0  0  0  0  0
    4.2599    5.8635    7.3173 O   0  0  0  0  0  0  0  0  0  0  0  0
    4.8443    4.3293    2.6366 O   0  0  0  0  0  0  0  0  0  0  0  0
    3.2818    3.2204    4.1835 O   0  0  0  0  0  0  0  0  0  0  0  0
    9.6547    1.3906    7.7833 C   0  0  0  0  0  0  0  0  0  0  0  0
    6.7736    4.7369    9.3742 C   0  0  0  0  0  0  0  0  0  0  0  0
    8.8421    0.4571    7.3117 F   0  0  0  0  0  0  0  0  0  0  0  0
   10.9056    0.9234    7.6633 F   0  0  0  0  0  0  0  0  0  0  0  0
    9.4238    1.5519    9.0844 F   0  0  0  0  0  0  0  0  0  0  0  0
    7.6962    4.5363   10.3175 F   0  0  0  0  0  0  0  0  0  0  0  0
    6.8666    6.0315    9.0207 F   0  0  0  0  0  0  0  0  0  0  0  0
    5.5889    4.5954    9.9667 F   0  0  0  0  0  0  0  0  0  0  0  0
    9.4852    3.0359    6.8676 S   0  0  0  0  0  0  0  0  0  0  0  0
    7.1246    3.6749    7.8443 S   0  0  0  0  0  0  0  0  0  0  0  0
    8.6765    3.9745    7.8387 N   0  0  0  0  0  0  0  0  0  0  0  0
   10.8287    3.5226    6.7166 O   0  0  0  0  0  0  0  0  0  0  0  0
    8.7931    2.7602    5.6410 O   0  0  0  0  0  0  0  0  0  0  0  0
    6.4070    4.3509    6.7985 O   0  0  0  0  0  0  0  0  0  0  0  0
    6.8166    2.3255    8.1596 O   0  0  0  0  0  0  0  0  0  0  0  0
   -0.5657    4.2669    7.2234 C   0  0  0  0  0  0  0  0  0  0  0  0
    0.3369    4.1279    8.1853 C   0  0  0  0  0  0  0  0  0  0  0  0
   -0.9104    3.4197    6.6587 H   0  0  0  0  0  0  0  0  0  0  0  0
   -0.9658    5.2245    6.9361 H   0  0  0  0  0  0  0  0  0  0  0  0
    0.9043    5.2126    8.9726 C   0  0  0  0  0  0  0  0  0  0  0  0
    0.7435    3.1490    8.3954 H   0  0  0  0  0  0  0  0  0  0  0  0
    2.1294    5.0252    9.6139 C   0  0  0  0  0  0  0  0  0  0  0  0
    2.7203    6.0420   10.3352 C   0  0  0  0  0  0  0  0  0  0  0  0
    2.0988    7.2801   10.4623 C   0  0  0  0  0  0  0  0  0  0  0  0
    0.2629    6.4420    9.1356 C   0  0  0  0  0  0  0  0  0  0  0  0
    0.8495    7.4568    9.8684 C   0  0  0  0  0  0  0  0  0  0  0  0
   -0.7173    6.5937    8.7098 H   0  0  0  0  0  0  0  0  0  0  0  0
    0.3115    8.3868   10.0098 H   0  0  0  0  0  0  0  0  0  0  0  0
    3.6625    5.8558   10.8245 H   0  0  0  0  0  0  0  0  0  0  0  0
    2.6277    4.0731    9.5534 H   0  0  0  0  0  0  0  0  0  0  0  0
    2.7603    8.4006   11.2244 C   0  0  0  0  0  0  0  0  0  0  0  0
    3.6110    9.2800   10.4149 N   0  0  0  0  0  0  0  0  0  0  0  0
    3.3918    8.0001   12.0180 H   0  0  0  0  0  0  0  0  0  0  0  0
    2.0065    9.0440   11.6871 H   0  0  0  0  0  0  0  0  0  0  0  0
    2.9691    9.8714    9.2995 C   0  0  0  0  0  0  0  0  0  0  0  0
    4.8361    8.6873    9.8818 C   0  0  0  0  0  0  0  0  0  0  0  0
    4.6453    8.5698    8.3529 C   0  0  0  0  0  0  0  0  0  0  0  0
    5.0209    7.7157   10.3322 H   0  0  0  0  0  0  0  0  0  0  0  0
    5.6792    9.3425   10.1158 H   0  0  0  0  0  0  0  0  0  0  0  0
    3.2282    8.9423    8.1342 N   0  0  0  0  0  0  0  0  0  0  0  0
    4.8367    7.5616    7.9812 H   0  0  0  0  0  0  0  0  0  0  0  0
    5.2734    9.2920    7.8304 H   0  0  0  0  0  0  0  0  0  0  0  0
    3.4492   10.8243    9.0429 H   0  0  0  0  0  0  0  0  0  0  0  0
    1.9018   10.0229    9.4582 H   0  0  0  0  0  0  0  0  0  0  0  0
    2.8915    9.5153    6.8150 C   0  0  0  0  0  0  0  0  0  0  0  0
    2.4986    8.4306    5.8175 C   0  0  0  0  0  0  0  0  0  0  0  0
    3.7489   10.0913    6.4596 H   0  0  0  0  0  0  0  0  0  0  0  0
    2.0533   10.2036    6.9523 H   0  0  0  0  0  0  0  0  0  0  0  0
    1.0698    7.9276    6.0311 C   0  0  0  0  0  0  0  0  0  0  0  0
    3.1856    7.5871    5.9011 H   0  0  0  0  0  0  0  0  0  0  0  0
    2.5885    8.8299    4.8075 H   0  0  0  0  0  0  0  0  0  0  0  0
    0.0125    8.8891    5.4999 C   0  0  0  0  0  0  0  0  0  0  0  0
    0.8955    7.7357    7.0921 H   0  0  0  0  0  0  0  0  0  0  0  0
    0.9775    6.9648    5.5320 H   0  0  0  0  0  0  0  0  0  0  0  0
    0.1519    9.0535    4.4346 H   0  0  0  0  0  0  0  0  0  0  0  0
    0.0494    9.8552    6.0026 H   0  0  0  0  0  0  0  0  0  0  0  0
   -0.9798    8.4728    5.6496 H   0  0  0  0  0  0  0  0  0  0  0  0
    2.6696    8.0844    8.2723 H   0  0  0  0  0  0  0  0  0  0  0  0
    6.9788   11.0574    5.6940 C   0  0  0  0  0  0  0  0  0  0  0  0
    7.0887   10.9977    4.3730 C   0  0  0  0  0  0  0  0  0  0  0  0
    7.0866   11.9832    6.2313 H   0  0  0  0  0  0  0  0  0  0  0  0
    6.8141   10.1741    6.2905 H   0  0  0  0  0  0  0  0  0  0  0  0
    6.9859    9.7711    3.5876 C   0  0  0  0  0  0  0  0  0  0  0  0
    7.3121   11.8958    3.8123 H   0  0  0  0  0  0  0  0  0  0  0  0
    6.2249    8.6817    4.0145 C   0  0  0  0  0  0  0  0  0  0  0  0
    6.2042    7.5009    3.2943 C   0  0  0  0  0  0  0  0  0  0  0  0
    6.9615    7.3653    2.1251 C   0  0  0  0  0  0  0  0  0  0  0  0
    7.6709    9.6596    2.3770 C   0  0  0  0  0  0  0  0  0  0  0  0
    7.6681    8.4731    1.6650 C   0  0  0  0  0  0  0  0  0  0  0  0
    8.2327   10.5052    2.0067 H   0  0  0  0  0  0  0  0  0  0  0  0
    8.2207    8.4111    0.7381 H   0  0  0  0  0  0  0  0  0  0  0  0
    5.5976    6.6791    3.6487 H   0  0  0  0  0  0  0  0  0  0  0  0
    5.6315    8.7473    4.9132 H   0  0  0  0  0  0  0  0  0  0  0  0
    7.0773    6.0121    1.4671 C   0  0  0  0  0  0  0  0  0  0  0  0
    8.0964    5.1459    2.0645 N   0  0  0  0  0  0  0  0  0  0  0  0
    7.3300    6.1160    0.4102 H   0  0  0  0  0  0  0  0  0  0  0  0
    6.1341    5.4712    1.5560 H   0  0  0  0  0  0  0  0  0  0  0  0
    7.9444    4.8577    3.4460 C   0  0  0  0  0  0  0  0  0  0  0  0
    9.4650    5.5974    1.9487 C   0  0  0  0  0  0  0  0  0  0  0  0
    9.7704    6.3563    3.2665 C   0  0  0  0  0  0  0  0  0  0  0  0
    9.6032    6.2184    1.0655 H   0  0  0  0  0  0  0  0  0  0  0  0
   10.1124    4.7212    1.8653 H   0  0  0  0  0  0  0  0  0  0  0  0
    8.6151    6.0504    4.1385 N   0  0  0  0  0  0  0  0  0  0  0  0
    9.8540    7.4312    3.1064 H   0  0  0  0  0  0  0  0  0  0  0  0
   10.6789    5.9812    3.7367 H   0  0  0  0  0  0  0  0  0  0  0  0
    8.4964    3.9603    3.7432 H   0  0  0  0  0  0  0  0  0  0  0  0
    6.9049    4.7545    3.7573 H   0  0  0  0  0  0  0  0  0  0  0  0
    8.9400    5.9000    5.5625 C   0  0  0  0  0  0  0  0  0  0  0  0
    9.4304    7.2119    6.1675 C   0  0  0  0  0  0  0  0  0  0  0  0
    9.7081    5.1344    5.6724 H   0  0  0  0  0  0  0  0  0  0  0  0
    8.0430    5.5492    6.0768 H   0  0  0  0  0  0  0  0  0  0  0  0
    9.9156    6.9831    7.5990 C   0  0  0  0  0  0  0  0  0  0  0  0
    8.6252    7.9521    6.1599 H   0  0  0  0  0  0  0  0  0  0  0  0
   10.2615    7.6118    5.5798 H   0  0  0  0  0  0  0  0  0  0  0  0
   10.4796    8.2583    8.2148 C   0  0  0  0  0  0  0  0  0  0  0  0
   10.6770    6.2029    7.5905 H   0  0  0  0  0  0  0  0  0  0  0  0
    9.0893    6.6086    8.1990 H   0  0  0  0  0  0  0  0  0  0  0  0
   11.3307    8.6207    7.6420 H   0  0  0  0  0  0  0  0  0  0  0  0
   10.8096    8.0668    9.2314 H   0  0  0  0  0  0  0  0  0  0  0  0
    9.7247    9.0420    8.2411 H   0  0  0  0  0  0  0  0  0  0  0  0
    7.9139    6.8047    4.0546 H   0  0  0  0  0  0  0  0  0  0  0  0
  1  3  1  0  0  0  0
  1  4  1  0  0  0  0
  1  5  1  0  0  0  0
  2  6  1  0  0  0  0
  2  7  1  0  0  0  0
  2  8  1  0  0  0  0
  1  9  1  0  0  0  0
  2 10  1  0  0  0  0
  9 11  1  0  0  0  0
 10 11  1  0  0  0  0
  9 12  2  0  0  0  0
  9 13  2  0  0  0  0
 10 14  2  0  0  0  0
 10 15  2  0  0  0  0
 16 18  1  0  0  0  0
 16 19  1  0  0  0  0
 16 20  1  0  0  0  0
 17 21  1  0  0  0  0
 17 22  1  0  0  0  0
 17 23  1  0  0  0  0
 16 24  1  0  0  0  0
 17 25  1  0  0  0  0
 24 26  1  0  0  0  0
 25 26  1  0  0  0  0
 24 27  2  0  0  0  0
 24 28  2  0  0  0  0
 25 29  2  0  0  0  0
 25 30  2  0  0  0  0
 31 32  2  0  0  0  0
 31 33  1  0  0  0  0
 31 34  1  0  0  0  0
 32 35  1  0  0  0  0
 32 36  1  0  0  0  0
 35 37  4  0  0  0  0
 37 38  4  0  0  0  0
 38 39  4  0  0  0  0
 35 40  4  0  0  0  0
 39 41  4  0  0  0  0
 40 41  4  0  0  0  0
 40 42  1  0  0  0  0
 41 43  1  0  0  0  0
 38 44  1  0  0  0  0
 37 45  1  0  0  0  0
 39 46  1  0  0  0  0
 46 47  1  0  0  0  0
 46 48  1  0  0  0  0
 46 49  1  0  0  0  0
 47 50  1  0  0  0  0
 47 51  1  0  0  0  0
 51 52  1  0  0  0  0
 51 53  1  0  0  0  0
 51 54  1  0  0  0  0
 50 55  1  0  0  0  0
 52 55  1  0  0  0  0
 52 56  1  0  0  0  0
 52 57  1  0  0  0  0
 50 58  1  0  0  0  0
 50 59  1  0  0  0  0
 55 60  1  0  0  0  0
 60 61  1  0  0  0  0
 60 62  1  0  0  0  0
 60 63  1  0  0  0  0
 61 64  1  0  0  0  0
 61 65  1  0  0  0  0
 61 66  1  0  0  0  0
 64 67  1  0  0  0  0
 64 68  1  0  0  0  0
 64 69  1  0  0  0  0
 67 70  1  0  0  0  0
 67 71  1  0  0  0  0
 67 72  1  0  0  0  0
 55 73  1  0  0  0  0
 74 75  2  0  0  0  0
 74 76  1  0  0  0  0
 74 77  1  0  0  0  0
 75 78  1  0  0  0  0
 75 79  1  0  0  0  0
 78 80  4  0  0  0  0
 80 81  4  0  0  0  0
 81 82  4  0  0  0  0
 78 83  4  0  0  0  0
 82 84  4  0  0  0  0
 83 84  4  0  0  0  0
 83 85  1  0  0  0  0
 84 86  1  0  0  0  0
 81 87  1  0  0  0  0
 80 88  1  0  0  0  0
 82 89  1  0  0  0  0
 89 90  1  0  0  0  0
 89 91  1  0  0  0  0
 89 92  1  0  0  0  0
 90 93  1  0  0  0  0
 90 94  1  0  0  0  0
 94 95  1  0  0  0  0
 94 96  1  0  0  0  0
 94 97  1  0  0  0  0
 93 98  1  0  0  0  0
 95 98  1  0  0  0  0
 95 99  1  0  0  0  0
 95100  1  0  0  0  0
 93101  1  0  0  0  0
 93102  1  0  0  0  0
 98103  1  0  0  0  0
103104  1  0  0  0  0
103105  1  0  0  0  0
103106  1  0  0  0  0
104107  1  0  0  0  0
104108  1  0  0  0  0
104109  1  0  0  0  0
107110  1  0  0  0  0
107111  1  0  0  0  0
107112  1  0  0  0  0
110113  1  0  0  0  0
110114  1  0  0  0  0
110115  1  0  0  0  0
 98116  1  0  0  0  0
M  END
