 xtb: 6.7.1 (edcfbbe)
          10212513383D

116116  0     0  0            999 V2000
    3.6888    5.8627    8.5410 C   0  0  0  0  0  0  0  0  0  0  0  0
    2.0823    7.4677    4.2538 C   0  0  0  0  0  0  0  0  0  0  0  0
    4.9011    5.9898    9.0729 F   0  0  0  0  0  0  0  0  0  0  0  0
    2.7925    5.9210    9.5188 F   0  0  0  0  0  0  0  0  0  0  0  0
    3.6077    4.6642    7.9713 F   0  0  0  0  0  0  0  0  0  0  0  0
    2.4571    8.6479    4.7703 F   0  0  0  0  0  0  0  0  0  0  0  0
    3.1281    7.0204    3.5399 F   0  0  0  0  0  0  0  0  0  0  0  0
    1.1022    7.7072    3.3904 F   0  0  0  0  0  0  0  0  0  0  0  0
    3.3687    7.2380    7.3049 S   0  0  0  0  0  0  0  0  0  0  0  0
    1.5675    6.2425    5.6222 S   0  0  0  0  0  0  0  0  0  0  0  0
    1.8670    7.0833    6.9200 N   0  0  0  0  0  0  0  0  0  0  0  0
    3.6591    8.4458    8.0116 O   0  0  0  0  0  0  0  0  0  0  0  0
    4.2884    6.9956    6.2012 O   0  0  0  0  0  0  0  0  0  0  0  0
    2.4553    5.1310    5.4230 O   0  0  0  0  0  0  0  0  0  0  0  0
    0.1827    6.0234    5.4155 O   0  0  0  0  0  0  0  0  0  0  0  0
    9.2152   -0.1160    5.9948 C   0  0  0  0  0  0  0  0  0  0  0  0
    7.6037    3.0878    8.4504 C   0  0  0  0  0  0  0  0  0  0  0  0
    8.7166   -0.4797    7.1736 F   0  0  0  0  0  0  0  0  0  0  0  0
    8.4867   -0.7367    5.0524 F   0  0  0  0  0  0  0  0  0  0  0  0
   10.4572   -0.5806    5.9064 F   0  0  0  0  0  0  0  0  0  0  0  0
    6.6282    3.7639    7.8262 F   0  0  0  0  0  0  0  0  0  0  0  0
    7.3109    1.7892    8.3599 F   0  0  0  0  0  0  0  0  0  0  0  0
    7.5401    3.4195    9.7400 F   0  0  0  0  0  0  0  0  0  0  0  0
    9.1530    1.7527    5.7608 S   0  0  0  0  0  0  0  0  0  0  0  0
    9.3031    3.5312    7.7090 S   0  0  0  0  0  0  0  0  0  0  0  0
    9.8331    2.1829    7.1061 N   0  0  0  0  0  0  0  0  0  0  0  0
    9.8978    1.9747    4.5607 O   0  0  0  0  0  0  0  0  0  0  0  0
    7.7468    2.0602    5.6889 O   0  0  0  0  0  0  0  0  0  0  0  0
   10.0758    3.9486    8.8316 O   0  0  0  0  0  0  0  0  0  0  0  0
    8.9743    4.5277    6.7288 O   0  0  0  0  0  0  0  0  0  0  0  0
   12.2799    7.1490   11.0389 C   0  0  0  0  0  0  0  0  0  0  0  0
   11.2011    6.7440   10.3790 C   0  0  0  0  0  0  0  0  0  0  0  0
   13.0750    6.4638   11.2772 H   0  0  0  0  0  0  0  0  0  0  0  0
   12.4178    8.1632   11.3769 H   0  0  0  0  0  0  0  0  0  0  0  0
   10.0637    7.5723    9.9964 C   0  0  0  0  0  0  0  0  0  0  0  0
   11.1115    5.7087   10.0762 H   0  0  0  0  0  0  0  0  0  0  0  0
   10.0358    8.9614   10.1324 C   0  0  0  0  0  0  0  0  0  0  0  0
    8.9387    9.6900    9.7172 C   0  0  0  0  0  0  0  0  0  0  0  0
    7.8325    9.0577    9.1573 C   0  0  0  0  0  0  0  0  0  0  0  0
    8.9417    6.9419    9.4539 C   0  0  0  0  0  0  0  0  0  0  0  0
    7.8443    7.6714    9.0436 C   0  0  0  0  0  0  0  0  0  0  0  0
    8.9480    5.8694    9.3474 H   0  0  0  0  0  0  0  0  0  0  0  0
    6.9812    7.1577    8.6461 H   0  0  0  0  0  0  0  0  0  0  0  0
    8.9362   10.7661    9.8203 H   0  0  0  0  0  0  0  0  0  0  0  0
   10.8821    9.4798   10.5558 H   0  0  0  0  0  0  0  0  0  0  0  0
    6.6711    9.8591    8.6421 C   0  0  0  0  0  0  0  0  0  0  0  0
    6.8582   10.3535    7.2595 N   0  0  0  0  0  0  0  0  0  0  0  0
    6.5370   10.7490    9.2666 H   0  0  0  0  0  0  0  0  0  0  0  0
    5.7571    9.2621    8.6998 H   0  0  0  0  0  0  0  0  0  0  0  0
    5.7648   10.1715    6.3792 C   0  0  0  0  0  0  0  0  0  0  0  0
    7.9984    9.8806    6.5064 C   0  0  0  0  0  0  0  0  0  0  0  0
    7.4905    8.6098    5.7992 C   0  0  0  0  0  0  0  0  0  0  0  0
    8.8527    9.6874    7.1493 H   0  0  0  0  0  0  0  0  0  0  0  0
    8.2677   10.6481    5.7739 H   0  0  0  0  0  0  0  0  0  0  0  0
    6.0603    8.9135    5.5422 N   0  0  0  0  0  0  0  0  0  0  0  0
    7.5797    7.7500    6.4636 H   0  0  0  0  0  0  0  0  0  0  0  0
    8.0195    8.3938    4.8745 H   0  0  0  0  0  0  0  0  0  0  0  0
    5.7077   11.0057    5.6745 H   0  0  0  0  0  0  0  0  0  0  0  0
    4.8153   10.0538    6.9034 H   0  0  0  0  0  0  0  0  0  0  0  0
    5.6731    9.0417    4.1188 C   0  0  0  0  0  0  0  0  0  0  0  0
    6.4702   10.0550    3.3001 C   0  0  0  0  0  0  0  0  0  0  0  0
    4.6195    9.3164    4.1065 H   0  0  0  0  0  0  0  0  0  0  0  0
    5.7675    8.0529    3.6635 H   0  0  0  0  0  0  0  0  0  0  0  0
    6.1539    9.9157    1.8071 C   0  0  0  0  0  0  0  0  0  0  0  0
    7.5412    9.9007    3.4353 H   0  0  0  0  0  0  0  0  0  0  0  0
    6.2353   11.0740    3.6103 H   0  0  0  0  0  0  0  0  0  0  0  0
    4.6983   10.2151    1.4677 C   0  0  0  0  0  0  0  0  0  0  0  0
    6.4036    8.9055    1.4775 H   0  0  0  0  0  0  0  0  0  0  0  0
    6.7945   10.6091    1.2594 H   0  0  0  0  0  0  0  0  0  0  0  0
    4.0326    9.4597    1.8750 H   0  0  0  0  0  0  0  0  0  0  0  0
    4.5655   10.2297    0.3893 H   0  0  0  0  0  0  0  0  0  0  0  0
    4.4048   11.1866    1.8581 H   0  0  0  0  0  0  0  0  0  0  0  0
    5.4566    8.1406    5.9062 H   0  0  0  0  0  0  0  0  0  0  0  0
   10.0734    2.4282    1.2078 C   0  0  0  0  0  0  0  0  0  0  0  0
    8.9347    2.2647    0.5441 C   0  0  0  0  0  0  0  0  0  0  0  0
   10.9569    2.7865    0.7059 H   0  0  0  0  0  0  0  0  0  0  0  0
   10.1697    2.2297    2.2623 H   0  0  0  0  0  0  0  0  0  0  0  0
    7.6820    1.7968    1.1252 C   0  0  0  0  0  0  0  0  0  0  0  0
    8.8837    2.5124   -0.5102 H   0  0  0  0  0  0  0  0  0  0  0  0
    7.6356    1.1306    2.3517 C   0  0  0  0  0  0  0  0  0  0  0  0
    6.4299    0.7312    2.8950 C   0  0  0  0  0  0  0  0  0  0  0  0
    5.2297    0.9722    2.2272 C   0  0  0  0  0  0  0  0  0  0  0  0
    6.4811    2.0089    0.4458 C   0  0  0  0  0  0  0  0  0  0  0  0
    5.2758    1.6077    0.9893 C   0  0  0  0  0  0  0  0  0  0  0  0
    6.4939    2.4980   -0.5182 H   0  0  0  0  0  0  0  0  0  0  0  0
    4.3593    1.7723    0.4385 H   0  0  0  0  0  0  0  0  0  0  0  0
    6.4301    0.2141    3.8422 H   0  0  0  0  0  0  0  0  0  0  0  0
    8.5473    0.9242    2.8861 H   0  0  0  0  0  0  0  0  0  0  0  0
    3.9041    0.6148    2.8521 C   0  0  0  0  0  0  0  0  0  0  0  0
    3.4149    1.5826    3.8377 N   0  0  0  0  0  0  0  0  0  0  0  0
    3.9589   -0.3562    3.3446 H   0  0  0  0  0  0  0  0  0  0  0  0
    3.1384    0.5517    2.0722 H   0  0  0  0  0  0  0  0  0  0  0  0
    3.6266    2.9461    3.5039 C   0  0  0  0  0  0  0  0  0  0  0  0
    3.9002    1.4624    5.2089 C   0  0  0  0  0  0  0  0  0  0  0  0
    4.8364    2.6686    5.4537 C   0  0  0  0  0  0  0  0  0  0  0  0
    4.4079    0.5105    5.3580 H   0  0  0  0  0  0  0  0  0  0  0  0
    3.0447    1.5098    5.8870 H   0  0  0  0  0  0  0  0  0  0  0  0
    4.9629    3.2955    4.1215 N   0  0  0  0  0  0  0  0  0  0  0  0
    5.8163    2.3793    5.8263 H   0  0  0  0  0  0  0  0  0  0  0  0
    4.3704    3.3894    6.1220 H   0  0  0  0  0  0  0  0  0  0  0  0
    2.8940    3.5885    4.0067 H   0  0  0  0  0  0  0  0  0  0  0  0
    3.6283    3.1220    2.4283 H   0  0  0  0  0  0  0  0  0  0  0  0
    5.2666    4.7330    4.0979 C   0  0  0  0  0  0  0  0  0  0  0  0
    6.7181    5.0492    4.4330 C   0  0  0  0  0  0  0  0  0  0  0  0
    4.5930    5.2302    4.7979 H   0  0  0  0  0  0  0  0  0  0  0  0
    5.0411    5.0904    3.0881 H   0  0  0  0  0  0  0  0  0  0  0  0
    7.7185    4.5171    3.4055 C   0  0  0  0  0  0  0  0  0  0  0  0
    6.9912    4.6624    5.4131 H   0  0  0  0  0  0  0  0  0  0  0  0
    6.7999    6.1354    4.4792 H   0  0  0  0  0  0  0  0  0  0  0  0
    9.0625    5.2203    3.5535 C   0  0  0  0  0  0  0  0  0  0  0  0
    7.3358    4.6572    2.3881 H   0  0  0  0  0  0  0  0  0  0  0  0
    7.8829    3.4527    3.5717 H   0  0  0  0  0  0  0  0  0  0  0  0
    8.9865    6.2714    3.2759 H   0  0  0  0  0  0  0  0  0  0  0  0
    9.8064    4.7459    2.9210 H   0  0  0  0  0  0  0  0  0  0  0  0
    9.3893    5.1449    4.5869 H   0  0  0  0  0  0  0  0  0  0  0  0
    5.7043    2.7855    3.6162 H   0  0  0  0  0  0  0  0  0  0  0  0
  1  3  1  0  0  0  0
  1  4  1  0  0  0  0
  1  5  1  0  0  0  0
  2  6  1  0  0  0  0
  2  7  1  0  0  0  0
  2  8  1  0  0  0  0
  1  9  1  0  0  0  0
  2 10  1  0  0  0  0
  9 11  1  0  0  0  0
 10 11  1  0  0  0  0
  9 12  2  0  0  0  0
  9 13  2  0  0  0  0
 10 14  2  0  0  0  0
 10 15  2  0  0  0  0
 16 18  1  0  0  0  0
 16 19  1  0  0  0  0
 16 20  1  0  0  0  0
 17 21  1  0  0  0  0
 17 22  1  0  0  0  0
 17 23  1  0  0  0  0
 16 24  1  0  0  0  0
 17 25  1  0  0  0  0
 24 26  1  0  0  0  0
 25 26  1  0  0  0  0
 24 27  2  0  0  0  0
 24 28  2  0  0  0  0
 25 29  2  0  0  0  0
 25 30  2  0  0  0  0
 31 32  2  0  0  0  0
 31 33  1  0  0  0  0
 31 34  1  0  0  0  0
 32 35  1  0  0  0  0
 32 36  1  0  0  0  0
 35 37  4  0  0  0  0
 37 38  4  0  0  0  0
 38 39  4  0  0  0  0
 35 40  4  0  0  0  0
 39 41  4  0  0  0  0
 40 41  4  0  0  0  0
 40 42  1  0  0  0  0
 41 43  1  0  0  0  0
 38 44  1  0  0  0  0
 37 45  1  0  0  0  0
 39 46  1  0  0  0  0
 46 47  1  0  0  0  0
 46 48  1  0  0  0  0
 46 49  1  0  0  0  0
 47 50  1  0  0  0  0
 47 51  1  0  0  0  0
 51 52  1  0  0  0  0
 51 53  1  0  0  0  0
 51 54  1  0  0  0  0
 50 55  1  0  0  0  0
 52 55  1  0  0  0  0
 52 56  1  0  0  0  0
 52 57  1  0  0  0  0
 50 58  1  0  0  0  0
 50 59  1  0  0  0  0
 55 60  1  0  0  0  0
 60 61  1  0  0  0  0
 60 62  1  0  0  0  0
 60 63  1  0  0  0  0
 61 64  1  0  0  0  0
 61 65  1  0  0  0  0
 61 66  1  0  0  0  0
 64 67  1  0  0  0  0
 64 68  1  0  0  0  0
 64 69  1  0  0  0  0
 67 70  1  0  0  0  0
 67 71  1  0  0  0  0
 67 72  1  0  0  0  0
 55 73  1  0  0  0  0
 74 75  2  0  0  0  0
 74 76  1  0  0  0  0
 74 77  1  0  0  0  0
 75 78  1  0  0  0  0
 75 79  1  0  0  0  0
 78 80  4  0  0  0  0
 80 81  4  0  0  0  0
 81 82  4  0  0  0  0
 78 83  4  0  0  0  0
 82 84  4  0  0  0  0
 83 84  4  0  0  0  0
 83 85  1  0  0  0  0
 84 86  1  0  0  0  0
 81 87  1  0  0  0  0
 80 88  1  0  0  0  0
 82 89  1  0  0  0  0
 89 90  1  0  0  0  0
 89 91  1  0  0  0  0
 89 92  1  0  0  0  0
 90 93  1  0  0  0  0
 90 94  1  0  0  0  0
 94 95  1  0  0  0  0
 94 96  1  0  0  0  0
 94 97  1  0  0  0  0
 93 98  1  0  0  0  0
 95 98  1  0  0  0  0
 95 99  1  0  0  0  0
 95100  1  0  0  0  0
 93101  1  0  0  0  0
 93102  1  0  0  0  0
 98103  1  0  0  0  0
103104  1  0  0  0  0
103105  1  0  0  0  0
103106  1  0  0  0  0
104107  1  0  0  0  0
104108  1  0  0  0  0
104109  1  0  0  0  0
107110  1  0  0  0  0
107111  1  0  0  0  0
107112  1  0  0  0  0
110113  1  0  0  0  0
110114  1  0  0  0  0
110115  1  0  0  0  0
 98116  1  0  0  0  0
M  END
