ionpairs.pdb
 OpenBabel10232514323D

870870  0  0  0  0  0  0  0  0999 V2000
   21.6110   11.9600   14.6670 C   0  0  0  0  0  0  0  0  0  0  0  0
   22.6910   12.8450   10.1040 C   0  0  0  0  0  0  0  0  0  0  0  0
   21.5570   10.9200   15.5170 F   0  0  0  0  0  0  0  0  0  0  0  0
   22.8980   12.3140   14.5830 F   0  0  0  0  0  0  0  0  0  0  0  0
   20.9620   12.9680   15.2580 F   0  0  0  0  0  0  0  0  0  0  0  0
   23.4860   13.7690   10.6610 F   0  0  0  0  0  0  0  0  0  0  0  0
   23.2670   11.6600   10.3010 F   0  0  0  0  0  0  0  0  0  0  0  0
   22.7160   13.0690    8.7790 F   0  0  0  0  0  0  0  0  0  0  0  0
   20.8880   11.5300   12.9710 S   0  0  0  0  0  0  0  0  0  0  0  0
   20.9210   13.0010   10.7740 S   0  0  0  0  0  0  0  0  0  0  0  0
   21.1320   12.9560   12.3300 N   0  0  0  0  0  0  0  0  0  0  0  0
   21.7390   10.4870   12.4910 O   0  0  0  0  0  0  0  0  0  0  0  0
   19.5250   11.2060   13.2600 O   0  0  0  0  0  0  0  0  0  0  0  0
   20.2220   11.8780   10.2290 O   0  0  0  0  0  0  0  0  0  0  0  0
   20.5580   14.3060   10.3080 O   0  0  0  0  0  0  0  0  0  0  0  0
   23.3590   23.6650   23.9660 C   0  0  0  0  0  0  0  0  0  0  0  0
   19.3110   21.7300   22.3390 C   0  0  0  0  0  0  0  0  0  0  0  0
   23.8420   24.8680   24.3220 F   0  0  0  0  0  0  0  0  0  0  0  0
   22.6380   23.2230   25.0020 F   0  0  0  0  0  0  0  0  0  0  0  0
   24.4140   22.8530   23.8440 F   0  0  0  0  0  0  0  0  0  0  0  0
   19.5020   20.9050   23.3790 F   0  0  0  0  0  0  0  0  0  0  0  0
   18.8850   22.8930   22.8330 F   0  0  0  0  0  0  0  0  0  0  0  0
   18.2920   21.2190   21.6280 F   0  0  0  0  0  0  0  0  0  0  0  0
   22.3300   23.7540   22.3790 S   0  0  0  0  0  0  0  0  0  0  0  0
   20.8820   21.8350   21.2770 S   0  0  0  0  0  0  0  0  0  0  0  0
   21.9890   22.2090   22.3270 N   0  0  0  0  0  0  0  0  0  0  0  0
   21.2390   24.6110   22.7270 O   0  0  0  0  0  0  0  0  0  0  0  0
   23.2630   24.2150   21.3990 O   0  0  0  0  0  0  0  0  0  0  0  0
   20.6030   22.8500   20.3090 O   0  0  0  0  0  0  0  0  0  0  0  0
   21.0000   20.4840   20.8150 O   0  0  0  0  0  0  0  0  0  0  0  0
   10.1280   29.7630   19.0530 C   0  0  0  0  0  0  0  0  0  0  0  0
   12.6540   32.6540   21.8890 C   0  0  0  0  0  0  0  0  0  0  0  0
    9.3800   29.8290   17.9380 F   0  0  0  0  0  0  0  0  0  0  0  0
   11.4050   29.7620   18.6530 F   0  0  0  0  0  0  0  0  0  0  0  0
    9.8870   28.5690   19.6020 F   0  0  0  0  0  0  0  0  0  0  0  0
   13.6060   31.7360   21.6700 F   0  0  0  0  0  0  0  0  0  0  0  0
   12.5440   33.3800   20.7770 F   0  0  0  0  0  0  0  0  0  0  0  0
   13.1270   33.4760   22.8400 F   0  0  0  0  0  0  0  0  0  0  0  0
    9.7640   31.1920   20.2400 S   0  0  0  0  0  0  0  0  0  0  0  0
   11.0470   31.8190   22.4650 S   0  0  0  0  0  0  0  0  0  0  0  0
   10.7960   30.7400   21.3510 N   0  0  0  0  0  0  0  0  0  0  0  0
   10.1320   32.3560   19.4970 O   0  0  0  0  0  0  0  0  0  0  0  0
    8.3830   31.0120   20.5680 O   0  0  0  0  0  0  0  0  0  0  0  0
   10.0820   32.8730   22.5110 O   0  0  0  0  0  0  0  0  0  0  0  0
   11.4630   31.2370   23.7070 O   0  0  0  0  0  0  0  0  0  0  0  0
   30.3450   21.1800   24.4700 C   0  0  0  0  0  0  0  0  0  0  0  0
   31.2090   16.6720   25.7780 C   0  0  0  0  0  0  0  0  0  0  0  0
   29.6420   21.8550   23.5450 F   0  0  0  0  0  0  0  0  0  0  0  0
   29.4770   20.8270   25.4240 F   0  0  0  0  0  0  0  0  0  0  0  0
   31.1950   22.0560   25.0150 F   0  0  0  0  0  0  0  0  0  0  0  0
   30.8340   17.1410   26.9770 F   0  0  0  0  0  0  0  0  0  0  0  0
   30.1040   16.5420   25.0440 F   0  0  0  0  0  0  0  0  0  0  0  0
   31.6810   15.4310   25.9830 F   0  0  0  0  0  0  0  0  0  0  0  0
   31.2300   19.6770   23.7340 S   0  0  0  0  0  0  0  0  0  0  0  0
   32.5510   17.7820   25.0210 S   0  0  0  0  0  0  0  0  0  0  0  0
   31.9020   19.2110   25.0880 N   0  0  0  0  0  0  0  0  0  0  0  0
   30.1640   18.8500   23.2620 O   0  0  0  0  0  0  0  0  0  0  0  0
   32.1160   20.2490   22.7680 O   0  0  0  0  0  0  0  0  0  0  0  0
   32.7470   17.2720   23.6990 O   0  0  0  0  0  0  0  0  0  0  0  0
   33.6160   17.6190   25.9650 O   0  0  0  0  0  0  0  0  0  0  0  0
   25.5490   20.6570   23.8600 C   0  0  0  0  0  0  0  0  0  0  0  0
   24.1640   16.9280   21.2230 C   0  0  0  0  0  0  0  0  0  0  0  0
   26.6440   21.4090   24.0640 F   0  0  0  0  0  0  0  0  0  0  0  0
   24.9870   21.1040   22.7310 F   0  0  0  0  0  0  0  0  0  0  0  0
   24.7050   20.9360   24.8580 F   0  0  0  0  0  0  0  0  0  0  0  0
   23.1690   17.7630   20.8940 F   0  0  0  0  0  0  0  0  0  0  0  0
   25.2530   17.3390   20.5740 F   0  0  0  0  0  0  0  0  0  0  0  0
   23.8420   15.7280   20.7120 F   0  0  0  0  0  0  0  0  0  0  0  0
   25.9630   18.8130   23.7580 S   0  0  0  0  0  0  0  0  0  0  0  0
   24.3460   16.8220   23.1120 S   0  0  0  0  0  0  0  0  0  0  0  0
   24.4720   18.3300   23.5350 N   0  0  0  0  0  0  0  0  0  0  0  0
   26.8160   18.7160   22.6150 O   0  0  0  0  0  0  0  0  0  0  0  0
   26.5220   18.5220   25.0410 O   0  0  0  0  0  0  0  0  0  0  0  0
   25.5230   16.0380   23.3230 O   0  0  0  0  0  0  0  0  0  0  0  0
   23.0860   16.2520   23.4830 O   0  0  0  0  0  0  0  0  0  0  0  0
    6.8460   21.4130   25.3970 C   0  0  0  0  0  0  0  0  0  0  0  0
    7.4960   19.1520   29.5500 C   0  0  0  0  0  0  0  0  0  0  0  0
    5.9170   22.1620   24.7800 F   0  0  0  0  0  0  0  0  0  0  0  0
    7.4900   22.2250   26.2410 F   0  0  0  0  0  0  0  0  0  0  0  0
    7.7230   21.0460   24.4570 F   0  0  0  0  0  0  0  0  0  0  0  0
    8.6360   19.8570   29.5460 F   0  0  0  0  0  0  0  0  0  0  0  0
    6.5110   20.0000   29.8450 F   0  0  0  0  0  0  0  0  0  0  0  0
    7.5820   18.2900   30.5770 F   0  0  0  0  0  0  0  0  0  0  0  0
    6.0840   19.9290   26.2920 S   0  0  0  0  0  0  0  0  0  0  0  0
    7.2870   18.2170   27.9090 S   0  0  0  0  0  0  0  0  0  0  0  0
    7.4530   19.3530   26.8360 N   0  0  0  0  0  0  0  0  0  0  0  0
    5.2340   20.5230   27.2760 O   0  0  0  0  0  0  0  0  0  0  0  0
    5.4720   19.1790   25.2390 O   0  0  0  0  0  0  0  0  0  0  0  0
    5.9800   17.6420   27.9780 O   0  0  0  0  0  0  0  0  0  0  0  0
    8.4120   17.3300   27.9460 O   0  0  0  0  0  0  0  0  0  0  0  0
   25.4000   22.2250   11.8340 C   0  0  0  0  0  0  0  0  0  0  0  0
   29.7680   20.3390   11.4600 C   0  0  0  0  0  0  0  0  0  0  0  0
   24.3810   22.2680   12.7090 F   0  0  0  0  0  0  0  0  0  0  0  0
   26.3000   23.1200   12.2540 F   0  0  0  0  0  0  0  0  0  0  0  0
   24.9190   22.6670   10.6680 F   0  0  0  0  0  0  0  0  0  0  0  0
   30.0920   21.6060   11.1690 F   0  0  0  0  0  0  0  0  0  0  0  0
   29.5510   20.2810   12.7740 F   0  0  0  0  0  0  0  0  0  0  0  0
   30.8640   19.5990   11.2190 F   0  0  0  0  0  0  0  0  0  0  0  0
   26.1450   20.4890   11.6960 S   0  0  0  0  0  0  0  0  0  0  0  0
   28.3180   19.7580   10.3790 S   0  0  0  0  0  0  0  0  0  0  0  0
   27.2370   20.8730   10.6170 N   0  0  0  0  0  0  0  0  0  0  0  0
   26.6450   20.2260   13.0090 O   0  0  0  0  0  0  0  0  0  0  0  0
   25.0560   19.6940   11.2190 O   0  0  0  0  0  0  0  0  0  0  0  0
   27.9740   18.4670   10.8900 O   0  0  0  0  0  0  0  0  0  0  0  0
   28.8980   19.8270    9.0710 O   0  0  0  0  0  0  0  0  0  0  0  0
   18.4710   26.5220   31.6250 C   0  0  0  0  0  0  0  0  0  0  0  0
   20.2380   22.4960   33.4820 C   0  0  0  0  0  0  0  0  0  0  0  0
   18.4530   27.8410   31.8840 F   0  0  0  0  0  0  0  0  0  0  0  0
   19.6550   26.2620   31.0600 F   0  0  0  0  0  0  0  0  0  0  0  0
   17.5350   26.3040   30.6960 F   0  0  0  0  0  0  0  0  0  0  0  0
   20.7120   22.3460   32.2380 F   0  0  0  0  0  0  0  0  0  0  0  0
   20.9830   23.4280   34.0770 F   0  0  0  0  0  0  0  0  0  0  0  0
   20.4800   21.3420   34.1260 F   0  0  0  0  0  0  0  0  0  0  0  0
   18.1940   25.4870   33.1860 S   0  0  0  0  0  0  0  0  0  0  0  0
   18.3740   22.8610   33.4430 S   0  0  0  0  0  0  0  0  0  0  0  0
   18.2780   24.0830   32.4600 N   0  0  0  0  0  0  0  0  0  0  0  0
   19.3090   25.8160   34.0170 O   0  0  0  0  0  0  0  0  0  0  0  0
   16.8900   25.8810   33.6220 O   0  0  0  0  0  0  0  0  0  0  0  0
   18.0280   23.1520   34.8000 O   0  0  0  0  0  0  0  0  0  0  0  0
   17.8630   21.6530   32.8660 O   0  0  0  0  0  0  0  0  0  0  0  0
    5.9610   26.1810   26.0830 C   0  0  0  0  0  0  0  0  0  0  0  0
    9.3210   23.5800   23.9110 C   0  0  0  0  0  0  0  0  0  0  0  0
    4.7260   26.6560   25.8420 F   0  0  0  0  0  0  0  0  0  0  0  0
    5.8130   24.8980   26.4300 F   0  0  0  0  0  0  0  0  0  0  0  0
    6.4140   26.8310   27.1590 F   0  0  0  0  0  0  0  0  0  0  0  0
    9.2590   22.8800   25.0520 F   0  0  0  0  0  0  0  0  0  0  0  0
    8.2340   23.2770   23.2030 F   0  0  0  0  0  0  0  0  0  0  0  0
   10.3720   23.1010   23.2250 F   0  0  0  0  0  0  0  0  0  0  0  0
    7.1020   26.3790   24.5850 S   0  0  0  0  0  0  0  0  0  0  0  0
    9.5520   25.4300   24.2780 S   0  0  0  0  0  0  0  0  0  0  0  0
    8.3750   25.7370   25.2730 N   0  0  0  0  0  0  0  0  0  0  0  0
    6.4830   25.5800   23.5750 O   0  0  0  0  0  0  0  0  0  0  0  0
    7.1540   27.7940   24.3870 O   0  0  0  0  0  0  0  0  0  0  0  0
    9.4460   26.0730   23.0050 O   0  0  0  0  0  0  0  0  0  0  0  0
   10.8300   25.4310   24.9250 O   0  0  0  0  0  0  0  0  0  0  0  0
   13.8440    4.8070    4.1630 C   0  0  0  0  0  0  0  0  0  0  0  0
   17.0130    8.3710    3.9730 C   0  0  0  0  0  0  0  0  0  0  0  0
   12.5120    4.6290    4.1680 F   0  0  0  0  0  0  0  0  0  0  0  0
   14.1940    5.0140    2.8890 F   0  0  0  0  0  0  0  0  0  0  0  0
   14.3850    3.6440    4.5370 F   0  0  0  0  0  0  0  0  0  0  0  0
   17.5050    7.6360    2.9660 F   0  0  0  0  0  0  0  0  0  0  0  0
   15.9050    8.9600    3.5250 F   0  0  0  0  0  0  0  0  0  0  0  0
   17.9030    9.3510    4.2020 F   0  0  0  0  0  0  0  0  0  0  0  0
   14.3730    6.2420    5.2790 S   0  0  0  0  0  0  0  0  0  0  0  0
   16.7840    7.3010    5.5260 S   0  0  0  0  0  0  0  0  0  0  0  0
   15.9230    6.0980    4.9970 N   0  0  0  0  0  0  0  0  0  0  0  0
   13.7460    7.3830    4.6900 O   0  0  0  0  0  0  0  0  0  0  0  0
   13.9410    5.8330    6.5800 O   0  0  0  0  0  0  0  0  0  0  0  0
   16.1170    8.1510    6.4620 O   0  0  0  0  0  0  0  0  0  0  0  0
   18.1360    6.9240    5.8090 O   0  0  0  0  0  0  0  0  0  0  0  0
   30.7790   31.5050   12.6930 C   0  0  0  0  0  0  0  0  0  0  0  0
   32.7570   28.0880   15.3740 C   0  0  0  0  0  0  0  0  0  0  0  0
   30.3120   31.6770   11.4440 F   0  0  0  0  0  0  0  0  0  0  0  0
   29.8180   30.8710   13.3730 F   0  0  0  0  0  0  0  0  0  0  0  0
   30.8990   32.7250   13.2250 F   0  0  0  0  0  0  0  0  0  0  0  0
   31.7700   28.4290   16.2140 F   0  0  0  0  0  0  0  0  0  0  0  0
   32.2060   27.3830   14.3860 F   0  0  0  0  0  0  0  0  0  0  0  0
   33.5580   27.2450   16.0470 F   0  0  0  0  0  0  0  0  0  0  0  0
   32.4090   30.5420   12.7160 S   0  0  0  0  0  0  0  0  0  0  0  0
   33.7220   29.6280   14.8210 S   0  0  0  0  0  0  0  0  0  0  0  0
   32.5890   30.5770   14.2870 N   0  0  0  0  0  0  0  0  0  0  0  0
   32.0620   29.2690   12.1660 O   0  0  0  0  0  0  0  0  0  0  0  0
   33.3020   31.3750   11.9720 O   0  0  0  0  0  0  0  0  0  0  0  0
   34.6300   29.1540   13.8230 O   0  0  0  0  0  0  0  0  0  0  0  0
   34.2710   30.0770   16.0660 O   0  0  0  0  0  0  0  0  0  0  0  0
    7.8340   12.8770    5.6830 C   0  0  0  0  0  0  0  0  0  0  0  0
   10.0530   16.9150    4.4370 C   0  0  0  0  0  0  0  0  0  0  0  0
    6.5970   12.3540    5.6810 F   0  0  0  0  0  0  0  0  0  0  0  0
    8.3000   12.7530    4.4350 F   0  0  0  0  0  0  0  0  0  0  0  0
    8.5800   12.0890    6.4620 F   0  0  0  0  0  0  0  0  0  0  0  0
   10.8430   16.0600    3.7720 F   0  0  0  0  0  0  0  0  0  0  0  0
    8.9100   17.0040    3.7570 F   0  0  0  0  0  0  0  0  0  0  0  0
   10.6420   18.1200    4.3580 F   0  0  0  0  0  0  0  0  0  0  0  0
    7.8420   14.6800    6.2610 S   0  0  0  0  0  0  0  0  0  0  0  0
    9.8700   16.3770    6.2490 S   0  0  0  0  0  0  0  0  0  0  0  0
    9.4060   14.8820    6.1250 N   0  0  0  0  0  0  0  0  0  0  0  0
    7.0490   15.3570    5.2830 O   0  0  0  0  0  0  0  0  0  0  0  0
    7.3420   14.6060    7.5980 O   0  0  0  0  0  0  0  0  0  0  0  0
    8.8940   17.2660    6.7990 O   0  0  0  0  0  0  0  0  0  0  0  0
   11.2200   16.4950    6.7150 O   0  0  0  0  0  0  0  0  0  0  0  0
   25.1420    8.0890   26.6130 C   0  0  0  0  0  0  0  0  0  0  0  0
   28.0030   11.4430   24.7840 C   0  0  0  0  0  0  0  0  0  0  0  0
   23.8870    7.6300   26.4660 F   0  0  0  0  0  0  0  0  0  0  0  0
   25.8600    7.5570   25.6180 F   0  0  0  0  0  0  0  0  0  0  0  0
   25.6050    7.5700   27.7540 F   0  0  0  0  0  0  0  0  0  0  0  0
   28.8250   10.3970   24.6270 F   0  0  0  0  0  0  0  0  0  0  0  0
   27.0570   11.3440   23.8500 F   0  0  0  0  0  0  0  0  0  0  0  0
   28.7190   12.5410   24.4910 F   0  0  0  0  0  0  0  0  0  0  0  0
   25.2130    9.9810   26.5980 S   0  0  0  0  0  0  0  0  0  0  0  0
   27.3620   11.5220   26.5710 S   0  0  0  0  0  0  0  0  0  0  0  0
   26.7800   10.0800   26.7970 N   0  0  0  0  0  0  0  0  0  0  0  0
   24.7360   10.3310   25.2970 O   0  0  0  0  0  0  0  0  0  0  0  0
   24.4210   10.3550   27.7290 O   0  0  0  0  0  0  0  0  0  0  0  0
   26.3890   12.5690   26.5660 O   0  0  0  0  0  0  0  0  0  0  0  0
   28.5780   11.7410   27.2960 O   0  0  0  0  0  0  0  0  0  0  0  0
   32.9270   14.2710   17.9810 C   0  0  0  0  0  0  0  0  0  0  0  0
   28.5220   16.1040   18.0800 C   0  0  0  0  0  0  0  0  0  0  0  0
   33.5400   13.0850   18.1340 F   0  0  0  0  0  0  0  0  0  0  0  0
   32.4310   14.2850   16.7390 F   0  0  0  0  0  0  0  0  0  0  0  0
   33.8840   15.2030   18.0340 F   0  0  0  0  0  0  0  0  0  0  0  0
   28.8940   16.5890   16.8870 F   0  0  0  0  0  0  0  0  0  0  0  0
   28.2790   14.8040   17.9180 F   0  0  0  0  0  0  0  0  0  0  0  0
   27.3450   16.6810   18.3770 F   0  0  0  0  0  0  0  0  0  0  0  0
   31.5780   14.5470   19.2810 S   0  0  0  0  0  0  0  0  0  0  0  0
   29.8220   16.5210   19.4010 S   0  0  0  0  0  0  0  0  0  0  0  0
   31.1530   15.9810   18.7630 N   0  0  0  0  0  0  0  0  0  0  0  0
   30.6400   13.5000   19.0270 O   0  0  0  0  0  0  0  0  0  0  0  0
   32.2950   14.5240   20.5180 O   0  0  0  0  0  0  0  0  0  0  0  0
   29.3910   15.8240   20.5720 O   0  0  0  0  0  0  0  0  0  0  0  0
   29.7620   17.9520   19.4120 O   0  0  0  0  0  0  0  0  0  0  0  0
   13.1150   24.9090   28.9020 C   0  0  0  0  0  0  0  0  0  0  0  0
   15.9440   21.8730   26.5450 C   0  0  0  0  0  0  0  0  0  0  0  0
   11.9790   24.8940   29.6200 F   0  0  0  0  0  0  0  0  0  0  0  0
   14.0870   24.4910   29.7210 F   0  0  0  0  0  0  0  0  0  0  0  0
   13.3660   26.1900   28.6150 F   0  0  0  0  0  0  0  0  0  0  0  0
   16.8860   22.4420   27.3110 F   0  0  0  0  0  0  0  0  0  0  0  0
   15.2450   21.0520   27.3280 F   0  0  0  0  0  0  0  0  0  0  0  0
   16.5900   21.1000   25.6570 F   0  0  0  0  0  0  0  0  0  0  0  0
   12.9910   23.8310   27.3510 S   0  0  0  0  0  0  0  0  0  0  0  0
   14.9190   23.2020   25.6550 S   0  0  0  0  0  0  0  0  0  0  0  0
   14.4550   24.1320   26.8330 N   0  0  0  0  0  0  0  0  0  0  0  0
   12.7800   22.5140   27.8650 O   0  0  0  0  0  0  0  0  0  0  0  0
   11.9330   24.4390   26.6040 O   0  0  0  0  0  0  0  0  0  0  0  0
   13.8680   22.4810   25.0070 O   0  0  0  0  0  0  0  0  0  0  0  0
   15.9150   23.8180   24.8300 O   0  0  0  0  0  0  0  0  0  0  0  0
   11.4990   15.2710   11.8030 C   0  0  0  0  0  0  0  0  0  0  0  0
   11.1810   15.8660   12.9470 C   0  0  0  0  0  0  0  0  0  0  0  0
   12.2570   15.6780   11.1580 H   0  0  0  0  0  0  0  0  0  0  0  0
   11.0190   14.3720   11.4560 H   0  0  0  0  0  0  0  0  0  0  0  0
   10.1620   15.4220   13.8900 C   0  0  0  0  0  0  0  0  0  0  0  0
   11.6780   16.7870   13.2200 H   0  0  0  0  0  0  0  0  0  0  0  0
    9.6110   16.3440   14.7840 C   0  0  0  0  0  0  0  0  0  0  0  0
    8.6410   15.9730   15.6920 C   0  0  0  0  0  0  0  0  0  0  0  0
    8.1770   14.6670   15.7390 C   0  0  0  0  0  0  0  0  0  0  0  0
    9.7180   14.0990   13.9580 C   0  0  0  0  0  0  0  0  0  0  0  0
    8.7340   13.7310   14.8580 C   0  0  0  0  0  0  0  0  0  0  0  0
   10.1520   13.3500   13.3160 H   0  0  0  0  0  0  0  0  0  0  0  0
    8.4270   12.6940   14.9080 H   0  0  0  0  0  0  0  0  0  0  0  0
    8.2800   16.6890   16.4120 H   0  0  0  0  0  0  0  0  0  0  0  0
    9.9560   17.3660   14.7660 H   0  0  0  0  0  0  0  0  0  0  0  0
    7.0230   14.2860   16.6350 C   0  0  0  0  0  0  0  0  0  0  0  0
    5.7010   14.6880   16.1470 N   0  0  0  0  0  0  0  0  0  0  0  0
    7.1450   14.7210   17.6280 H   0  0  0  0  0  0  0  0  0  0  0  0
    6.9940   13.2000   16.7510 H   0  0  0  0  0  0  0  0  0  0  0  0
    5.4400   14.4200   14.7910 C   0  0  0  0  0  0  0  0  0  0  0  0
    5.3060   16.0720   16.3270 C   0  0  0  0  0  0  0  0  0  0  0  0
    5.5410   16.7700   14.9580 C   0  0  0  0  0  0  0  0  0  0  0  0
    5.8640   16.5360   17.1360 H   0  0  0  0  0  0  0  0  0  0  0  0
    4.2440   16.1030   16.5860 H   0  0  0  0  0  0  0  0  0  0  0  0
    5.9320   15.6700   14.0450 N   0  0  0  0  0  4  0  0  0  0  0  0
    6.3270   17.5220   15.0050 H   0  0  0  0  0  0  0  0  0  0  0  0
    4.6230   17.2290   14.5950 H   0  0  0  0  0  0  0  0  0  0  0  0
    4.3630   14.3550   14.6050 H   0  0  0  0  0  0  0  0  0  0  0  0
    5.9410   13.5270   14.4200 H   0  0  0  0  0  0  0  0  0  0  0  0
    5.4620   15.7900   12.6490 C   0  0  0  0  0  0  0  0  0  0  0  0
    5.8170   17.1440   12.0370 C   0  0  0  0  0  0  0  0  0  0  0  0
    4.3800   15.6440   12.6340 H   0  0  0  0  0  0  0  0  0  0  0  0
    5.9300   14.9830   12.0810 H   0  0  0  0  0  0  0  0  0  0  0  0
    5.7700   17.1980   10.5100 C   0  0  0  0  0  0  0  0  0  0  0  0
    6.8130   17.4210   12.3830 H   0  0  0  0  0  0  0  0  0  0  0  0
    5.1400   17.8890   12.4540 H   0  0  0  0  0  0  0  0  0  0  0  0
    5.8960   18.6310   10.0080 C   0  0  0  0  0  0  0  0  0  0  0  0
    4.8290   16.7830   10.1330 H   0  0  0  0  0  0  0  0  0  0  0  0
    6.5900   16.6140   10.0810 H   0  0  0  0  0  0  0  0  0  0  0  0
    6.8220   19.0880   10.3540 H   0  0  0  0  0  0  0  0  0  0  0  0
    5.0600   19.2200   10.3690 H   0  0  0  0  0  0  0  0  0  0  0  0
    5.8840   18.6550    8.9220 H   0  0  0  0  0  0  0  0  0  0  0  0
    6.9590   15.6080   14.0420 H   0  0  0  0  0  0  0  0  0  0  0  0
   21.8860   26.8540   16.4920 C   0  0  0  0  0  0  0  0  0  0  0  0
   21.6030   27.9930   15.8700 C   0  0  0  0  0  0  0  0  0  0  0  0
   22.6760   26.2130   16.1430 H   0  0  0  0  0  0  0  0  0  0  0  0
   21.3470   26.5080   17.3570 H   0  0  0  0  0  0  0  0  0  0  0  0
   20.5490   28.9310   16.2350 C   0  0  0  0  0  0  0  0  0  0  0  0
   22.1620   28.2650   14.9840 H   0  0  0  0  0  0  0  0  0  0  0  0
   20.0580   29.8160   15.2710 C   0  0  0  0  0  0  0  0  0  0  0  0
   19.0580   30.7180   15.5680 C   0  0  0  0  0  0  0  0  0  0  0  0
   18.5020   30.7680   16.8380 C   0  0  0  0  0  0  0  0  0  0  0  0
   20.0120   29.0020   17.5230 C   0  0  0  0  0  0  0  0  0  0  0  0
   18.9970   29.8960   17.8150 C   0  0  0  0  0  0  0  0  0  0  0  0
   20.3970   28.3670   18.3050 H   0  0  0  0  0  0  0  0  0  0  0  0
   18.6180   29.9490   18.8280 H   0  0  0  0  0  0  0  0  0  0  0  0
   18.7430   31.4320   14.8250 H   0  0  0  0  0  0  0  0  0  0  0  0
   20.4740   29.7950   14.2770 H   0  0  0  0  0  0  0  0  0  0  0  0
   17.3170   31.6580   17.1320 C   0  0  0  0  0  0  0  0  0  0  0  0
   16.0310   31.1580   16.6400 N   0  0  0  0  0  0  0  0  0  0  0  0
   17.4620   32.6490   16.7000 H   0  0  0  0  0  0  0  0  0  0  0  0
   17.2110   31.7790   18.2120 H   0  0  0  0  0  0  0  0  0  0  0  0
   15.7610   29.8010   16.8970 C   0  0  0  0  0  0  0  0  0  0  0  0
   15.7330   31.3270   15.2300 C   0  0  0  0  0  0  0  0  0  0  0  0
   16.0270   29.9570   14.5590 C   0  0  0  0  0  0  0  0  0  0  0  0
   16.3170   32.1380   14.8030 H   0  0  0  0  0  0  0  0  0  0  0  0
   14.6740   31.5780   15.1240 H   0  0  0  0  0  0  0  0  0  0  0  0
   16.3450   29.0520   15.6890 N   0  0  0  0  0  4  0  0  0  0  0  0
   16.8630   30.0060   13.8640 H   0  0  0  0  0  0  0  0  0  0  0  0
   15.1460   29.5840   14.0380 H   0  0  0  0  0  0  0  0  0  0  0  0
   14.6840   29.6080   16.8860 H   0  0  0  0  0  0  0  0  0  0  0  0
   16.2010   29.4390   17.8250 H   0  0  0  0  0  0  0  0  0  0  0  0
   15.8950   27.6530   15.5430 C   0  0  0  0  0  0  0  0  0  0  0  0
   16.3490   27.0360   14.2210 C   0  0  0  0  0  0  0  0  0  0  0  0
   14.8060   27.6300   15.6130 H   0  0  0  0  0  0  0  0  0  0  0  0
   16.3090   27.0920   16.3850 H   0  0  0  0  0  0  0  0  0  0  0  0
   16.3170   25.5080   14.1730 C   0  0  0  0  0  0  0  0  0  0  0  0
   17.3600   27.3880   14.0130 H   0  0  0  0  0  0  0  0  0  0  0  0
   15.7240   27.4440   13.4290 H   0  0  0  0  0  0  0  0  0  0  0  0
   16.5480   25.0000   12.7550 C   0  0  0  0  0  0  0  0  0  0  0  0
   15.3520   25.1270   14.5230 H   0  0  0  0  0  0  0  0  0  0  0  0
   17.0970   25.0890   14.8160 H   0  0  0  0  0  0  0  0  0  0  0  0
   17.5010   25.3510   12.3630 H   0  0  0  0  0  0  0  0  0  0  0  0
   15.7520   25.3520   12.1070 H   0  0  0  0  0  0  0  0  0  0  0  0
   16.5450   23.9140   12.7370 H   0  0  0  0  0  0  0  0  0  0  0  0
   17.3650   29.0580   15.8230 H   0  0  0  0  0  0  0  0  0  0  0  0
   30.0090   30.6000   19.9080 C   0  0  0  0  0  0  0  0  0  0  0  0
   29.3850   30.9110   21.0380 C   0  0  0  0  0  0  0  0  0  0  0  0
   30.1510   31.3310   19.1320 H   0  0  0  0  0  0  0  0  0  0  0  0
   30.3920   29.6150   19.7010 H   0  0  0  0  0  0  0  0  0  0  0  0
   29.1170   30.0050   22.1480 C   0  0  0  0  0  0  0  0  0  0  0  0
   28.9930   31.9120   21.1670 H   0  0  0  0  0  0  0  0  0  0  0  0
   28.0840   30.3050   23.0400 C   0  0  0  0  0  0  0  0  0  0  0  0
   27.7900   29.4750   24.1020 C   0  0  0  0  0  0  0  0  0  0  0  0
   28.5110   28.3100   24.3130 C   0  0  0  0  0  0  0  0  0  0  0  0
   29.8650   28.8470   22.3770 C   0  0  0  0  0  0  0  0  0  0  0  0
   29.5580   28.0080   23.4330 C   0  0  0  0  0  0  0  0  0  0  0  0
   30.6990   28.6070   21.7370 H   0  0  0  0  0  0  0  0  0  0  0  0
   30.1710   27.1320   23.6040 H   0  0  0  0  0  0  0  0  0  0  0  0
   27.0310   29.7630   24.8110 H   0  0  0  0  0  0  0  0  0  0  0  0
   27.5090   31.2050   22.8960 H   0  0  0  0  0  0  0  0  0  0  0  0
   28.1080   27.3320   25.3910 C   0  0  0  0  0  0  0  0  0  0  0  0
   26.9460   26.4990   25.0680 N   0  0  0  0  0  0  0  0  0  0  0  0
   27.8790   27.8550   26.3200 H   0  0  0  0  0  0  0  0  0  0  0  0
   28.9350   26.6470   25.5910 H   0  0  0  0  0  0  0  0  0  0  0  0
   26.9450   25.9180   23.7870 C   0  0  0  0  0  0  0  0  0  0  0  0
   25.6290   27.0940   25.1990 C   0  0  0  0  0  0  0  0  0  0  0  0
   25.1920   27.4950   23.7620 C   0  0  0  0  0  0  0  0  0  0  0  0
   25.6490   27.9390   25.8830 H   0  0  0  0  0  0  0  0  0  0  0  0
   24.9450   26.3450   25.6040 H   0  0  0  0  0  0  0  0  0  0  0  0
   26.2610   26.9590   22.8870 N   0  0  0  0  0  4  0  0  0  0  0  0
   25.1060   28.5730   23.6400 H   0  0  0  0  0  0  0  0  0  0  0  0
   24.2450   27.0260   23.5000 H   0  0  0  0  0  0  0  0  0  0  0  0
   26.3100   25.0260   23.7630 H   0  0  0  0  0  0  0  0  0  0  0  0
   27.9410   25.6810   23.4160 H   0  0  0  0  0  0  0  0  0  0  0  0
   25.8260   26.4560   21.5680 C   0  0  0  0  0  0  0  0  0  0  0  0
   24.9800   27.4790   20.8110 C   0  0  0  0  0  0  0  0  0  0  0  0
   25.2560   25.5360   21.7180 H   0  0  0  0  0  0  0  0  0  0  0  0
   26.7290   26.2160   21.0010 H   0  0  0  0  0  0  0  0  0  0  0  0
   24.8590   27.2350   19.3070 C   0  0  0  0  0  0  0  0  0  0  0  0
   25.4050   28.4670   20.9900 H   0  0  0  0  0  0  0  0  0  0  0  0
   23.9900   27.4950   21.2650 H   0  0  0  0  0  0  0  0  0  0  0  0
   23.8110   28.1510   18.6870 C   0  0  0  0  0  0  0  0  0  0  0  0
   24.5740   26.1970   19.1010 H   0  0  0  0  0  0  0  0  0  0  0  0
   25.8150   27.4260   18.8110 H   0  0  0  0  0  0  0  0  0  0  0  0
   24.0520   29.1980   18.8620 H   0  0  0  0  0  0  0  0  0  0  0  0
   22.8390   27.9390   19.1190 H   0  0  0  0  0  0  0  0  0  0  0  0
   23.7490   27.9850   17.6150 H   0  0  0  0  0  0  0  0  0  0  0  0
   26.9570   27.7030   22.7420 H   0  0  0  0  0  0  0  0  0  0  0  0
   12.4960   30.9930   31.0410 C   0  0  0  0  0  0  0  0  0  0  0  0
   12.5080   31.4500   29.7940 C   0  0  0  0  0  0  0  0  0  0  0  0
   12.6650   31.6510   31.8740 H   0  0  0  0  0  0  0  0  0  0  0  0
   12.3310   29.9570   31.2850 H   0  0  0  0  0  0  0  0  0  0  0  0
   12.3120   30.6560   28.5870 C   0  0  0  0  0  0  0  0  0  0  0  0
   12.7150   32.4970   29.6160 H   0  0  0  0  0  0  0  0  0  0  0  0
   12.7950   31.1360   27.3670 C   0  0  0  0  0  0  0  0  0  0  0  0
   12.6380   30.4180   26.2000 C   0  0  0  0  0  0  0  0  0  0  0  0
   11.9970   29.1880   26.2050 C   0  0  0  0  0  0  0  0  0  0  0  0
   11.6380   29.4320   28.5880 C   0  0  0  0  0  0  0  0  0  0  0  0
   11.4950   28.7050   27.4190 C   0  0  0  0  0  0  0  0  0  0  0  0
   11.2110   29.0500   29.5020 H   0  0  0  0  0  0  0  0  0  0  0  0
   10.9450   27.7720   27.4440 H   0  0  0  0  0  0  0  0  0  0  0  0
   12.9640   30.8410   25.2640 H   0  0  0  0  0  0  0  0  0  0  0  0
   13.2980   32.0890   27.3390 H   0  0  0  0  0  0  0  0  0  0  0  0
   11.9410   28.3380   24.9580 C   0  0  0  0  0  0  0  0  0  0  0  0
   13.1850   27.6360   24.6310 N   0  0  0  0  0  0  0  0  0  0  0  0
   11.6760   28.9430   24.0900 H   0  0  0  0  0  0  0  0  0  0  0  0
   11.1720   27.5700   25.0740 H   0  0  0  0  0  0  0  0  0  0  0  0
   13.8180   26.9780   25.7020 C   0  0  0  0  0  0  0  0  0  0  0  0
   14.2440   28.3950   23.9940 C   0  0  0  0  0  0  0  0  0  0  0  0
   15.2550   28.7550   25.1180 C   0  0  0  0  0  0  0  0  0  0  0  0
   13.8460   29.2720   23.4900 H   0  0  0  0  0  0  0  0  0  0  0  0
   14.7260   27.7620   23.2440 H   0  0  0  0  0  0  0  0  0  0  0  0
   14.7500   28.0360   26.3120 N   0  0  0  0  0  4  0  0  0  0  0  0
   15.2990   29.8250   25.3090 H   0  0  0  0  0  0  0  0  0  0  0  0
   16.2510   28.3900   24.8740 H   0  0  0  0  0  0  0  0  0  0  0  0
   14.4640   26.1720   25.3400 H   0  0  0  0  0  0  0  0  0  0  0  0
   13.1230   26.5980   26.4500 H   0  0  0  0  0  0  0  0  0  0  0  0
   15.7790   27.5080   27.2320 C   0  0  0  0  0  0  0  0  0  0  0  0
   16.7910   28.5770   27.6400 C   0  0  0  0  0  0  0  0  0  0  0  0
   16.2890   26.6770   26.7410 H   0  0  0  0  0  0  0  0  0  0  0  0
   15.2570   27.1240   28.1120 H   0  0  0  0  0  0  0  0  0  0  0  0
   17.6050   28.2560   28.8930 C   0  0  0  0  0  0  0  0  0  0  0  0
   16.2530   29.5150   27.7820 H   0  0  0  0  0  0  0  0  0  0  0  0
   17.4600   28.7440   26.7970 H   0  0  0  0  0  0  0  0  0  0  0  0
   18.7420   29.2520   29.0780 C   0  0  0  0  0  0  0  0  0  0  0  0
   18.0350   27.2500   28.8320 H   0  0  0  0  0  0  0  0  0  0  0  0
   16.9690   28.2960   29.7820 H   0  0  0  0  0  0  0  0  0  0  0  0
   18.3640   30.2710   29.1480 H   0  0  0  0  0  0  0  0  0  0  0  0
   19.4230   29.1890   28.2360 H   0  0  0  0  0  0  0  0  0  0  0  0
   19.3010   29.0270   29.9820 H   0  0  0  0  0  0  0  0  0  0  0  0
   14.1400   28.6790   26.8360 H   0  0  0  0  0  0  0  0  0  0  0  0
    3.9800    3.7700   10.4560 C   0  0  0  0  0  0  0  0  0  0  0  0
    3.4420    4.2270    9.3310 C   0  0  0  0  0  0  0  0  0  0  0  0
    3.3780    3.2820   11.2010 H   0  0  0  0  0  0  0  0  0  0  0  0
    5.0270    3.8680   10.6870 H   0  0  0  0  0  0  0  0  0  0  0  0
    4.1490    4.9180    8.2600 C   0  0  0  0  0  0  0  0  0  0  0  0
    2.3750    4.1260    9.1760 H   0  0  0  0  0  0  0  0  0  0  0  0
    3.4300    5.7360    7.3830 C   0  0  0  0  0  0  0  0  0  0  0  0
    4.0560    6.4140    6.3580 C   0  0  0  0  0  0  0  0  0  0  0  0
    5.4260    6.3090    6.1710 C   0  0  0  0  0  0  0  0  0  0  0  0
    5.5240    4.7870    8.0530 C   0  0  0  0  0  0  0  0  0  0  0  0
    6.1530    5.4810    7.0350 C   0  0  0  0  0  0  0  0  0  0  0  0
    6.1050    4.1300    8.6810 H   0  0  0  0  0  0  0  0  0  0  0  0
    7.2160    5.3400    6.8800 H   0  0  0  0  0  0  0  0  0  0  0  0
    3.4690    6.9860    5.6590 H   0  0  0  0  0  0  0  0  0  0  0  0
    2.3640    5.8330    7.5090 H   0  0  0  0  0  0  0  0  0  0  0  0
    6.1350    7.1530    5.1380 C   0  0  0  0  0  0  0  0  0  0  0  0
    6.3410    8.5530    5.5180 N   0  0  0  0  0  0  0  0  0  0  0  0
    5.5840    7.1540    4.1970 H   0  0  0  0  0  0  0  0  0  0  0  0
    7.1250    6.7350    4.9420 H   0  0  0  0  0  0  0  0  0  0  0  0
    6.8320    8.7700    6.8180 C   0  0  0  0  0  0  0  0  0  0  0  0
    5.2150    9.4600    5.3990 C   0  0  0  0  0  0  0  0  0  0  0  0
    4.6300    9.6130    6.8310 C   0  0  0  0  0  0  0  0  0  0  0  0
    4.4850    9.0850    4.6850 H   0  0  0  0  0  0  0  0  0  0  0  0
    5.5790   10.4250    5.0370 H   0  0  0  0  0  0  0  0  0  0  0  0
    5.5760    8.8710    7.6980 N   0  0  0  0  0  4  0  0  0  0  0  0
    3.6280    9.1950    6.9170 H   0  0  0  0  0  0  0  0  0  0  0  0
    4.6120   10.6590    7.1320 H   0  0  0  0  0  0  0  0  0  0  0  0
    7.3360    9.7390    6.8890 H   0  0  0  0  0  0  0  0  0  0  0  0
    7.4890    7.9760    7.1730 H   0  0  0  0  0  0  0  0  0  0  0  0
    5.8000    9.4380    9.0440 C   0  0  0  0  0  0  0  0  0  0  0  0
    4.4890    9.6980    9.7850 C   0  0  0  0  0  0  0  0  0  0  0  0
    6.3620   10.3680    8.9400 H   0  0  0  0  0  0  0  0  0  0  0  0
    6.4120    8.7220    9.5970 H   0  0  0  0  0  0  0  0  0  0  0  0
    4.6200    9.8600   11.2990 C   0  0  0  0  0  0  0  0  0  0  0  0
    3.8060    8.8780    9.5610 H   0  0  0  0  0  0  0  0  0  0  0  0
    4.0330   10.5890    9.3550 H   0  0  0  0  0  0  0  0  0  0  0  0
    3.3160   10.3530   11.9120 C   0  0  0  0  0  0  0  0  0  0  0  0
    5.4100   10.5760   11.5480 H   0  0  0  0  0  0  0  0  0  0  0  0
    4.8750    8.9030   11.7650 H   0  0  0  0  0  0  0  0  0  0  0  0
    2.4970    9.6700   11.6940 H   0  0  0  0  0  0  0  0  0  0  0  0
    3.0700   11.3310   11.5110 H   0  0  0  0  0  0  0  0  0  0  0  0
    3.4140   10.4440   12.9900 H   0  0  0  0  0  0  0  0  0  0  0  0
    5.2280    7.9090    7.8000 H   0  0  0  0  0  0  0  0  0  0  0  0
   17.3570   19.1720   22.0460 C   0  0  0  0  0  0  0  0  0  0  0  0
   18.6640   18.9700   22.1700 C   0  0  0  0  0  0  0  0  0  0  0  0
   16.9350   19.5220   21.1200 H   0  0  0  0  0  0  0  0  0  0  0  0
   16.6600   19.0110   22.8500 H   0  0  0  0  0  0  0  0  0  0  0  0
   19.3520   18.5190   23.3720 C   0  0  0  0  0  0  0  0  0  0  0  0
   19.3140   19.1860   21.3310 H   0  0  0  0  0  0  0  0  0  0  0  0
   20.7160   18.7870   23.5200 C   0  0  0  0  0  0  0  0  0  0  0  0
   21.4090   18.3840   24.6430 C   0  0  0  0  0  0  0  0  0  0  0  0
   20.7670   17.7030   25.6660 C   0  0  0  0  0  0  0  0  0  0  0  0
   18.7120   17.8050   24.3880 C   0  0  0  0  0  0  0  0  0  0  0  0
   19.4040   17.4160   25.5210 C   0  0  0  0  0  0  0  0  0  0  0  0
   17.6710   17.5400   24.2890 H   0  0  0  0  0  0  0  0  0  0  0  0
   18.8900   16.8410   26.2810 H   0  0  0  0  0  0  0  0  0  0  0  0
   22.4720   18.5470   24.7020 H   0  0  0  0  0  0  0  0  0  0  0  0
   21.2370   19.3150   22.7380 H   0  0  0  0  0  0  0  0  0  0  0  0
   21.4870   17.3790   26.9540 C   0  0  0  0  0  0  0  0  0  0  0  0
   21.6520   18.5090   27.8720 N   0  0  0  0  0  0  0  0  0  0  0  0
   22.4830   16.9840   26.7500 H   0  0  0  0  0  0  0  0  0  0  0  0
   20.9320   16.6130   27.5000 H   0  0  0  0  0  0  0  0  0  0  0  0
   20.5080   19.3020   28.0800 C   0  0  0  0  0  0  0  0  0  0  0  0
   22.7080   19.4620   27.5910 C   0  0  0  0  0  0  0  0  0  0  0  0
   22.0230   20.6790   26.9100 C   0  0  0  0  0  0  0  0  0  0  0  0
   23.4820   19.0150   26.9710 H   0  0  0  0  0  0  0  0  0  0  0  0
   23.1650   19.7680   28.5350 H   0  0  0  0  0  0  0  0  0  0  0  0
   20.5740   20.3760   26.9830 N   0  0  0  0  0  4  0  0  0  0  0  0
   22.3330   20.8050   25.8740 H   0  0  0  0  0  0  0  0  0  0  0  0
   22.2260   21.5960   27.4610 H   0  0  0  0  0  0  0  0  0  0  0  0
   20.5700   19.8340   29.0350 H   0  0  0  0  0  0  0  0  0  0  0  0
   19.5750   18.7440   28.0190 H   0  0  0  0  0  0  0  0  0  0  0  0
   19.6800   21.5350   27.1890 C   0  0  0  0  0  0  0  0  0  0  0  0
   19.9410   22.6500   26.1770 C   0  0  0  0  0  0  0  0  0  0  0  0
   19.8240   21.9090   28.2040 H   0  0  0  0  0  0  0  0  0  0  0  0
   18.6540   21.1700   27.0950 H   0  0  0  0  0  0  0  0  0  0  0  0
   18.8120   23.6690   26.0290 C   0  0  0  0  0  0  0  0  0  0  0  0
   20.1490   22.1890   25.2120 H   0  0  0  0  0  0  0  0  0  0  0  0
   20.8610   23.1570   26.4680 H   0  0  0  0  0  0  0  0  0  0  0  0
   19.2570   24.8620   25.1940 C   0  0  0  0  0  0  0  0  0  0  0  0
   18.4860   24.0370   27.0080 H   0  0  0  0  0  0  0  0  0  0  0  0
   17.9470   23.2120   25.5370 H   0  0  0  0  0  0  0  0  0  0  0  0
   19.5880   24.5480   24.2050 H   0  0  0  0  0  0  0  0  0  0  0  0
   20.0760   25.3710   25.6910 H   0  0  0  0  0  0  0  0  0  0  0  0
   18.4400   25.5690   25.0760 H   0  0  0  0  0  0  0  0  0  0  0  0
   20.3030   19.9020   26.1110 H   0  0  0  0  0  0  0  0  0  0  0  0
   28.2010    6.1180   21.8030 C   0  0  0  0  0  0  0  0  0  0  0  0
   27.5700    6.6290   20.7520 C   0  0  0  0  0  0  0  0  0  0  0  0
   29.1580    6.4970   22.1140 H   0  0  0  0  0  0  0  0  0  0  0  0
   27.8050    5.3040   22.3870 H   0  0  0  0  0  0  0  0  0  0  0  0
   26.2850    6.1880   20.2250 C   0  0  0  0  0  0  0  0  0  0  0  0
   28.0410    7.4240   20.1880 H   0  0  0  0  0  0  0  0  0  0  0  0
   25.9590    6.4690   18.8960 C   0  0  0  0  0  0  0  0  0  0  0  0
   24.7570    6.0680   18.3510 C   0  0  0  0  0  0  0  0  0  0  0  0
   23.8340    5.3650   19.1100 C   0  0  0  0  0  0  0  0  0  0  0  0
   25.3420    5.5080   21.0000 C   0  0  0  0  0  0  0  0  0  0  0  0
   24.1440    5.0920   20.4480 C   0  0  0  0  0  0  0  0  0  0  0  0
   25.5380    5.3130   22.0430 H   0  0  0  0  0  0  0  0  0  0  0  0
   23.4200    4.5900   21.0780 H   0  0  0  0  0  0  0  0  0  0  0  0
   24.5050    6.3530   17.3430 H   0  0  0  0  0  0  0  0  0  0  0  0
   26.6610    7.0140   18.2850 H   0  0  0  0  0  0  0  0  0  0  0  0
   22.5780    4.8070   18.4840 C   0  0  0  0  0  0  0  0  0  0  0  0
   22.7710    3.5960   17.6820 N   0  0  0  0  0  0  0  0  0  0  0  0
   22.1070    5.5480   17.8360 H   0  0  0  0  0  0  0  0  0  0  0  0
   21.8620    4.5500   19.2680 H   0  0  0  0  0  0  0  0  0  0  0  0
   23.5710    2.5960   18.2650 C   0  0  0  0  0  0  0  0  0  0  0  0
   23.3010    3.7490   16.3410 C   0  0  0  0  0  0  0  0  0  0  0  0
   24.8130    3.4040   16.4310 C   0  0  0  0  0  0  0  0  0  0  0  0
   23.1210    4.7520   15.9620 H   0  0  0  0  0  0  0  0  0  0  0  0
   22.7930    3.0410   15.6800 H   0  0  0  0  0  0  0  0  0  0  0  0
   25.0030    2.9360   17.8250 N   0  0  0  0  0  4  0  0  0  0  0  0
   25.4480    4.2650   16.2300 H   0  0  0  0  0  0  0  0  0  0  0  0
   25.0690    2.5990   15.7440 H   0  0  0  0  0  0  0  0  0  0  0  0
   23.3430    1.6140   17.8370 H   0  0  0  0  0  0  0  0  0  0  0  0
   23.4990    2.5600   19.3510 H   0  0  0  0  0  0  0  0  0  0  0  0
   25.9900    1.8530   18.0150 C   0  0  0  0  0  0  0  0  0  0  0  0
   27.3380    2.1830   17.3740 C   0  0  0  0  0  0  0  0  0  0  0  0
   25.5850    0.9350   17.5840 H   0  0  0  0  0  0  0  0  0  0  0  0
   26.1070    1.7100   19.0920 H   0  0  0  0  0  0  0  0  0  0  0  0
   28.5160    1.3520   17.8800 C   0  0  0  0  0  0  0  0  0  0  0  0
   27.5390    3.2420   17.5360 H   0  0  0  0  0  0  0  0  0  0  0  0
   27.2350    2.0620   16.2970 H   0  0  0  0  0  0  0  0  0  0  0  0
   29.7540    1.5780   17.0200 C   0  0  0  0  0  0  0  0  0  0  0  0
   28.2770    0.2830   17.8640 H   0  0  0  0  0  0  0  0  0  0  0  0
   28.7630    1.6260   18.9100 H   0  0  0  0  0  0  0  0  0  0  0  0
   30.0360    2.6290   17.0070 H   0  0  0  0  0  0  0  0  0  0  0  0
   29.5560    1.2560   16.0030 H   0  0  0  0  0  0  0  0  0  0  0  0
   30.5910    1.0000   17.4020 H   0  0  0  0  0  0  0  0  0  0  0  0
   25.2870    3.7440   18.3960 H   0  0  0  0  0  0  0  0  0  0  0  0
   31.6690   24.0110    8.0620 C   0  0  0  0  0  0  0  0  0  0  0  0
   32.1230   25.1490    7.5500 C   0  0  0  0  0  0  0  0  0  0  0  0
   32.3030   23.1460    8.1440 H   0  0  0  0  0  0  0  0  0  0  0  0
   30.6570   23.8860    8.4080 H   0  0  0  0  0  0  0  0  0  0  0  0
   31.3570   26.3750    7.3710 C   0  0  0  0  0  0  0  0  0  0  0  0
   33.1420   25.1960    7.1890 H   0  0  0  0  0  0  0  0  0  0  0  0
   31.7840   27.3160    6.4300 C   0  0  0  0  0  0  0  0  0  0  0  0
   31.0890   28.4900    6.2220 C   0  0  0  0  0  0  0  0  0  0  0  0
   29.9360   28.7680    6.9400 C   0  0  0  0  0  0  0  0  0  0  0  0
   30.2130   26.6700    8.1170 C   0  0  0  0  0  0  0  0  0  0  0  0
   29.5080   27.8390    7.8960 C   0  0  0  0  0  0  0  0  0  0  0  0
   29.8790   25.9890    8.8850 H   0  0  0  0  0  0  0  0  0  0  0  0
   28.6400   28.0540    8.5070 H   0  0  0  0  0  0  0  0  0  0  0  0
   31.4760   29.2250    5.5360 H   0  0  0  0  0  0  0  0  0  0  0  0
   32.6780   27.1220    5.8590 H   0  0  0  0  0  0  0  0  0  0  0  0
   29.0990   29.9840    6.6220 C   0  0  0  0  0  0  0  0  0  0  0  0
   28.2670   29.8650    5.4210 N   0  0  0  0  0  0  0  0  0  0  0  0
   29.7300   30.8630    6.4890 H   0  0  0  0  0  0  0  0  0  0  0  0
   28.4190   30.1860    7.4520 H   0  0  0  0  0  0  0  0  0  0  0  0
   27.5430   28.6660    5.2920 C   0  0  0  0  0  0  0  0  0  0  0  0
   28.9080   30.0440    4.1330 C   0  0  0  0  0  0  0  0  0  0  0  0
   29.1550   28.6160    3.5710 C   0  0  0  0  0  0  0  0  0  0  0  0
   29.8240   30.6210    4.2290 H   0  0  0  0  0  0  0  0  0  0  0  0
   28.2280   30.5930    3.4760 H   0  0  0  0  0  0  0  0  0  0  0  0
   28.4930   27.7160    4.5460 N   0  0  0  0  0  4  0  0  0  0  0  0
   30.2140   28.3780    3.4920 H   0  0  0  0  0  0  0  0  0  0  0  0
   28.6840   28.4960    2.5960 H   0  0  0  0  0  0  0  0  0  0  0  0
   26.6730   28.8020    4.6430 H   0  0  0  0  0  0  0  0  0  0  0  0
   27.2390   28.2370    6.2460 H   0  0  0  0  0  0  0  0  0  0  0  0
   27.8550   26.5090    3.9820 C   0  0  0  0  0  0  0  0  0  0  0  0
   28.8080   25.7180    3.0870 C   0  0  0  0  0  0  0  0  0  0  0  0
   26.9750   26.8150    3.4140 H   0  0  0  0  0  0  0  0  0  0  0  0
   27.5280   25.8940    4.8250 H   0  0  0  0  0  0  0  0  0  0  0  0
   28.3980   24.2690    2.8240 C   0  0  0  0  0  0  0  0  0  0  0  0
   29.7980   25.7420    3.5430 H   0  0  0  0  0  0  0  0  0  0  0  0
   28.9030   26.2530    2.1440 H   0  0  0  0  0  0  0  0  0  0  0  0
   29.2660   23.6440    1.7380 C   0  0  0  0  0  0  0  0  0  0  0  0
   27.3520   24.2110    2.5040 H   0  0  0  0  0  0  0  0  0  0  0  0
   28.5060   23.6700    3.7330 H   0  0  0  0  0  0  0  0  0  0  0  0
   30.3190   23.6740    2.0120 H   0  0  0  0  0  0  0  0  0  0  0  0
   29.1310   24.1830    0.8070 H   0  0  0  0  0  0  0  0  0  0  0  0
   28.9810   22.6080    1.5740 H   0  0  0  0  0  0  0  0  0  0  0  0
   29.1970   27.4240    5.2380 H   0  0  0  0  0  0  0  0  0  0  0  0
   21.1200   27.1420   26.5480 C   0  0  0  0  0  0  0  0  0  0  0  0
   20.1340   27.6380   25.8100 C   0  0  0  0  0  0  0  0  0  0  0  0
   20.9160   26.5060   27.3900 H   0  0  0  0  0  0  0  0  0  0  0  0
   22.1590   27.3530   26.3580 H   0  0  0  0  0  0  0  0  0  0  0  0
   20.2840   28.5230   24.6610 C   0  0  0  0  0  0  0  0  0  0  0  0
   19.1090   27.4150   26.0770 H   0  0  0  0  0  0  0  0  0  0  0  0
   19.2070   29.3260   24.2720 C   0  0  0  0  0  0  0  0  0  0  0  0
   19.3020   30.1820   23.1960 C   0  0  0  0  0  0  0  0  0  0  0  0
   20.4790   30.2780   22.4680 C   0  0  0  0  0  0  0  0  0  0  0  0
   21.4590   28.5960   23.9090 C   0  0  0  0  0  0  0  0  0  0  0  0
   21.5590   29.4670   22.8400 C   0  0  0  0  0  0  0  0  0  0  0  0
   22.2950   27.9590   24.1510 H   0  0  0  0  0  0  0  0  0  0  0  0
   22.4720   29.4840   22.2580 H   0  0  0  0  0  0  0  0  0  0  0  0
   18.4370   30.7410   22.8790 H   0  0  0  0  0  0  0  0  0  0  0  0
   18.2820   29.2690   24.8230 H   0  0  0  0  0  0  0  0  0  0  0  0
   20.6340   31.3090   21.3750 C   0  0  0  0  0  0  0  0  0  0  0  0
   20.8680   32.6780   21.8450 N   0  0  0  0  0  0  0  0  0  0  0  0
   19.7470   31.3350   20.7400 H   0  0  0  0  0  0  0  0  0  0  0  0
   21.4850   31.0470   20.7440 H   0  0  0  0  0  0  0  0  0  0  0  0
   21.8310   32.8220   22.8600 C   0  0  0  0  0  0  0  0  0  0  0  0
   19.7250   33.4360   22.3160 C   0  0  0  0  0  0  0  0  0  0  0  0
   19.7690   33.3630   23.8680 C   0  0  0  0  0  0  0  0  0  0  0  0
   18.7990   33.0450   21.9040 H   0  0  0  0  0  0  0  0  0  0  0  0
   19.8320   34.4730   21.9870 H   0  0  0  0  0  0  0  0  0  0  0  0
   21.0420   32.6660   24.1700 N   0  0  0  0  0  4  0  0  0  0  0  0
   18.9270   32.8100   24.2820 H   0  0  0  0  0  0  0  0  0  0  0  0
   19.7940   34.3610   24.3030 H   0  0  0  0  0  0  0  0  0  0  0  0
   22.2420   33.8360   22.8680 H   0  0  0  0  0  0  0  0  0  0  0  0
   22.6340   32.0890   22.8040 H   0  0  0  0  0  0  0  0  0  0  0  0
   21.7530   33.1150   25.3840 C   0  0  0  0  0  0  0  0  0  0  0  0
   20.8450   33.1230   26.6140 C   0  0  0  0  0  0  0  0  0  0  0  0
   22.1490   34.1170   25.2050 H   0  0  0  0  0  0  0  0  0  0  0  0
   22.5920   32.4320   25.5370 H   0  0  0  0  0  0  0  0  0  0  0  0
   21.5730   33.1440   27.9570 C   0  0  0  0  0  0  0  0  0  0  0  0
   20.1970   32.2480   26.5610 H   0  0  0  0  0  0  0  0  0  0  0  0
   20.1850   33.9860   26.5370 H   0  0  0  0  0  0  0  0  0  0  0  0
   20.6010   33.3960   29.1030 C   0  0  0  0  0  0  0  0  0  0  0  0
   22.3370   33.9280   27.9760 H   0  0  0  0  0  0  0  0  0  0  0  0
   22.0700   32.1860   28.1380 H   0  0  0  0  0  0  0  0  0  0  0  0
   19.8210   32.6370   29.1290 H   0  0  0  0  0  0  0  0  0  0  0  0
   20.1370   34.3690   28.9810 H   0  0  0  0  0  0  0  0  0  0  0  0
   21.1250   33.3860   30.0540 H   0  0  0  0  0  0  0  0  0  0  0  0
   20.8420   31.6610   24.2580 H   0  0  0  0  0  0  0  0  0  0  0  0
   16.8290   16.2580   27.9180 C   0  0  0  0  0  0  0  0  0  0  0  0
   15.8040   15.9150   27.1480 C   0  0  0  0  0  0  0  0  0  0  0  0
   17.3860   15.5170   28.4630 H   0  0  0  0  0  0  0  0  0  0  0  0
   17.1510   17.2780   28.0470 H   0  0  0  0  0  0  0  0  0  0  0  0
   14.9650   16.8260   26.3790 C   0  0  0  0  0  0  0  0  0  0  0  0
   15.5110   14.8740   27.0890 H   0  0  0  0  0  0  0  0  0  0  0  0
   13.6820   16.4190   26.0020 C   0  0  0  0  0  0  0  0  0  0  0  0
   12.8510   17.2480   25.2780 C   0  0  0  0  0  0  0  0  0  0  0  0
   13.2630   18.5190   24.9080 C   0  0  0  0  0  0  0  0  0  0  0  0
   15.3940   18.0940   25.9790 C   0  0  0  0  0  0  0  0  0  0  0  0
   14.5530   18.9310   25.2670 C   0  0  0  0  0  0  0  0  0  0  0  0
   16.3930   18.4250   26.2120 H   0  0  0  0  0  0  0  0  0  0  0  0
   14.9200   19.8980   24.9480 H   0  0  0  0  0  0  0  0  0  0  0  0
   11.8920   16.8860   24.9460 H   0  0  0  0  0  0  0  0  0  0  0  0
   13.3390   15.4360   26.2780 H   0  0  0  0  0  0  0  0  0  0  0  0
   12.3110   19.4790   24.2340 C   0  0  0  0  0  0  0  0  0  0  0  0
   11.3330   20.1070   25.1260 N   0  0  0  0  0  0  0  0  0  0  0  0
   11.7500   18.9760   23.4460 H   0  0  0  0  0  0  0  0  0  0  0  0
   12.8770   20.2910   23.7720 H   0  0  0  0  0  0  0  0  0  0  0  0
   11.8420   20.6150   26.3360 C   0  0  0  0  0  0  0  0  0  0  0  0
   10.1750   19.3270   25.5180 C   0  0  0  0  0  0  0  0  0  0  0  0
   10.4780   18.7900   26.9450 C   0  0  0  0  0  0  0  0  0  0  0  0
    9.9800   18.5320   24.8030 H   0  0  0  0  0  0  0  0  0  0  0  0
    9.3010   19.9840   25.5420 H   0  0  0  0  0  0  0  0  0  0  0  0
   11.7590   19.4370   27.3180 N   0  0  0  0  0  4  0  0  0  0  0  0
   10.5790   17.7060   26.9680 H   0  0  0  0  0  0  0  0  0  0  0  0
    9.7040   19.0960   27.6470 H   0  0  0  0  0  0  0  0  0  0  0  0
   11.1890   21.3970   26.7370 H   0  0  0  0  0  0  0  0  0  0  0  0
   12.8650   20.9810   26.2570 H   0  0  0  0  0  0  0  0  0  0  0  0
   11.9090   19.7990   28.7430 C   0  0  0  0  0  0  0  0  0  0  0  0
   11.6150   18.6210   29.6710 C   0  0  0  0  0  0  0  0  0  0  0  0
   11.2330   20.6270   28.9630 H   0  0  0  0  0  0  0  0  0  0  0  0
   12.9370   20.1430   28.8800 H   0  0  0  0  0  0  0  0  0  0  0  0
   12.1560   18.7650   31.0930 C   0  0  0  0  0  0  0  0  0  0  0  0
   12.0230   17.7200   29.2130 H   0  0  0  0  0  0  0  0  0  0  0  0
   10.5360   18.4780   29.6980 H   0  0  0  0  0  0  0  0  0  0  0  0
   11.6100   17.6700   32.0000 C   0  0  0  0  0  0  0  0  0  0  0  0
   11.8800   19.7350   31.5200 H   0  0  0  0  0  0  0  0  0  0  0  0
   13.2480   18.6960   31.0950 H   0  0  0  0  0  0  0  0  0  0  0  0
   11.8630   16.6820   31.6190 H   0  0  0  0  0  0  0  0  0  0  0  0
   10.5300   17.7530   32.0650 H   0  0  0  0  0  0  0  0  0  0  0  0
   12.0180   17.7690   33.0020 H   0  0  0  0  0  0  0  0  0  0  0  0
   12.5240   18.8010   27.0580 H   0  0  0  0  0  0  0  0  0  0  0  0
    6.9030   21.9070   12.8650 C   0  0  0  0  0  0  0  0  0  0  0  0
    6.9010   23.1860   12.5080 C   0  0  0  0  0  0  0  0  0  0  0  0
    6.0480   21.4630   13.3440 H   0  0  0  0  0  0  0  0  0  0  0  0
    7.7450   21.2550   12.7080 H   0  0  0  0  0  0  0  0  0  0  0  0
    8.0010   23.9000   11.8720 C   0  0  0  0  0  0  0  0  0  0  0  0
    6.0330   23.7950   12.7260 H   0  0  0  0  0  0  0  0  0  0  0  0
    8.0580   25.2930   11.9710 C   0  0  0  0  0  0  0  0  0  0  0  0
    9.0810   26.0130   11.3900 C   0  0  0  0  0  0  0  0  0  0  0  0
   10.0940   25.3700   10.6920 C   0  0  0  0  0  0  0  0  0  0  0  0
    9.0020   23.2550   11.1430 C   0  0  0  0  0  0  0  0  0  0  0  0
   10.0370   23.9760   10.5750 C   0  0  0  0  0  0  0  0  0  0  0  0
    8.9670   22.1850   11.0060 H   0  0  0  0  0  0  0  0  0  0  0  0
   10.7860   23.4530    9.9930 H   0  0  0  0  0  0  0  0  0  0  0  0
    9.0660   27.0890   11.4270 H   0  0  0  0  0  0  0  0  0  0  0  0
    7.2830   25.8150   12.5080 H   0  0  0  0  0  0  0  0  0  0  0  0
   11.2850   26.1370   10.1710 C   0  0  0  0  0  0  0  0  0  0  0  0
   12.2790   26.5010   11.1860 N   0  0  0  0  0  0  0  0  0  0  0  0
   10.9680   27.0620    9.6880 H   0  0  0  0  0  0  0  0  0  0  0  0
   11.8090   25.5360    9.4250 H   0  0  0  0  0  0  0  0  0  0  0  0
   12.6470   25.4780   12.0780 C   0  0  0  0  0  0  0  0  0  0  0  0
   11.9930   27.6400   12.0360 C   0  0  0  0  0  0  0  0  0  0  0  0
   11.4760   27.0570   13.3810 C   0  0  0  0  0  0  0  0  0  0  0  0
   11.2760   28.3080   11.5650 H   0  0  0  0  0  0  0  0  0  0  0  0
   12.9190   28.1970   12.2000 H   0  0  0  0  0  0  0  0  0  0  0  0
   11.6430   25.5910   13.2360 N   0  0  0  0  0  4  0  0  0  0  0  0
   10.4320   27.3040   13.5660 H   0  0  0  0  0  0  0  0  0  0  0  0
   12.0830   27.4060   14.2140 H   0  0  0  0  0  0  0  0  0  0  0  0
   13.6350   25.6710   12.5080 H   0  0  0  0  0  0  0  0  0  0  0  0
   12.6160   24.4830   11.6360 H   0  0  0  0  0  0  0  0  0  0  0  0
   12.0180   24.8580   14.4630 C   0  0  0  0  0  0  0  0  0  0  0  0
   11.0860   25.1760   15.6310 C   0  0  0  0  0  0  0  0  0  0  0  0
   13.0460   25.1190   14.7220 H   0  0  0  0  0  0  0  0  0  0  0  0
   11.9790   23.7920   14.2260 H   0  0  0  0  0  0  0  0  0  0  0  0
   11.1180   24.1680   16.7790 C   0  0  0  0  0  0  0  0  0  0  0  0
   10.0710   25.2580   15.2420 H   0  0  0  0  0  0  0  0  0  0  0  0
   11.3420   26.1680   16.0030 H   0  0  0  0  0  0  0  0  0  0  0  0
   10.3520   24.6910   17.9890 C   0  0  0  0  0  0  0  0  0  0  0  0
   12.1480   23.9600   17.0880 H   0  0  0  0  0  0  0  0  0  0  0  0
   10.6620   23.2230   16.4710 H   0  0  0  0  0  0  0  0  0  0  0  0
    9.3170   24.9100   17.7320 H   0  0  0  0  0  0  0  0  0  0  0  0
   10.8210   25.5980   18.3540 H   0  0  0  0  0  0  0  0  0  0  0  0
   10.3620   23.9570   18.7900 H   0  0  0  0  0  0  0  0  0  0  0  0
   10.7590   25.2030   12.8780 H   0  0  0  0  0  0  0  0  0  0  0  0
   20.5600   27.2260   20.9570 C   0  0  0  0  0  0  0  0  0  0  0  0
   19.3140   27.4920   20.5820 C   0  0  0  0  0  0  0  0  0  0  0  0
   21.3560   27.9250   20.7730 H   0  0  0  0  0  0  0  0  0  0  0  0
   20.8420   26.3110   21.4490 H   0  0  0  0  0  0  0  0  0  0  0  0
   18.1600   26.6190   20.7600 C   0  0  0  0  0  0  0  0  0  0  0  0
   19.1040   28.4170   20.0610 H   0  0  0  0  0  0  0  0  0  0  0  0
   17.0420   26.7900   19.9390 C   0  0  0  0  0  0  0  0  0  0  0  0
   15.9280   25.9860   20.0660 C   0  0  0  0  0  0  0  0  0  0  0  0
   15.8890   24.9740   21.0130 C   0  0  0  0  0  0  0  0  0  0  0  0
   18.1080   25.6210   21.7360 C   0  0  0  0  0  0  0  0  0  0  0  0
   16.9980   24.8040   21.8510 C   0  0  0  0  0  0  0  0  0  0  0  0
   18.9330   25.4890   22.4180 H   0  0  0  0  0  0  0  0  0  0  0  0
   16.9740   24.0560   22.6340 H   0  0  0  0  0  0  0  0  0  0  0  0
   15.0560   26.1810   19.4630 H   0  0  0  0  0  0  0  0  0  0  0  0
   17.0490   27.5700   19.1940 H   0  0  0  0  0  0  0  0  0  0  0  0
   14.7310   24.0060   21.0670 C   0  0  0  0  0  0  0  0  0  0  0  0
   14.7410   22.9710   20.0300 N   0  0  0  0  0  0  0  0  0  0  0  0
   13.7810   24.5360   20.9820 H   0  0  0  0  0  0  0  0  0  0  0  0
   14.7350   23.4850   22.0260 H   0  0  0  0  0  0  0  0  0  0  0  0
   15.9730   22.3240   19.8210 C   0  0  0  0  0  0  0  0  0  0  0  0
   14.2940   23.3390   18.7000 C   0  0  0  0  0  0  0  0  0  0  0  0
   15.5800   23.5760   17.8620 C   0  0  0  0  0  0  0  0  0  0  0  0
   13.6480   24.2130   18.7340 H   0  0  0  0  0  0  0  0  0  0  0  0
   13.7200   22.5090   18.2810 H   0  0  0  0  0  0  0  0  0  0  0  0
   16.6880   23.1800   18.7640 N   0  0  0  0  0  4  0  0  0  0  0  0
   15.6920   24.6150   17.5570 H   0  0  0  0  0  0  0  0  0  0  0  0
   15.5910   22.9380   16.9790 H   0  0  0  0  0  0  0  0  0  0  0  0
   15.8250   21.3380   19.3690 H   0  0  0  0  0  0  0  0  0  0  0  0
   16.5780   22.2390   20.7230 H   0  0  0  0  0  0  0  0  0  0  0  0
   17.8490   22.5340   18.1180 C   0  0  0  0  0  0  0  0  0  0  0  0
   18.3840   23.3530   16.9440 C   0  0  0  0  0  0  0  0  0  0  0  0
   17.5480   21.5420   17.7760 H   0  0  0  0  0  0  0  0  0  0  0  0
   18.6200   22.4190   18.8830 H   0  0  0  0  0  0  0  0  0  0  0  0
   19.8060   23.0050   16.5050 C   0  0  0  0  0  0  0  0  0  0  0  0
   18.3310   24.4080   17.2150 H   0  0  0  0  0  0  0  0  0  0  0  0
   17.6980   23.2270   16.1070 H   0  0  0  0  0  0  0  0  0  0  0  0
   20.1580   23.6920   15.1910 C   0  0  0  0  0  0  0  0  0  0  0  0
   19.9210   21.9250   16.3700 H   0  0  0  0  0  0  0  0  0  0  0  0
   20.5290   23.3270   17.2610 H   0  0  0  0  0  0  0  0  0  0  0  0
   20.0630   24.7740   15.2760 H   0  0  0  0  0  0  0  0  0  0  0  0
   19.4930   23.3440   14.4080 H   0  0  0  0  0  0  0  0  0  0  0  0
   21.1770   23.4560   14.9010 H   0  0  0  0  0  0  0  0  0  0  0  0
   17.0120   24.0220   19.2590 H   0  0  0  0  0  0  0  0  0  0  0  0
   20.8870   23.6560   10.9810 C   0  0  0  0  0  0  0  0  0  0  0  0
   21.7070   24.3250   10.1790 C   0  0  0  0  0  0  0  0  0  0  0  0
   20.3420   22.7990   10.6270 H   0  0  0  0  0  0  0  0  0  0  0  0
   20.7160   23.9310   12.0080 H   0  0  0  0  0  0  0  0  0  0  0  0
   22.4820   25.5060   10.5370 C   0  0  0  0  0  0  0  0  0  0  0  0
   21.8070   24.0160    9.1460 H   0  0  0  0  0  0  0  0  0  0  0  0
   22.9220   26.3670    9.5270 C   0  0  0  0  0  0  0  0  0  0  0  0
   23.6540   27.4990    9.8170 C   0  0  0  0  0  0  0  0  0  0  0  0
   23.9710   27.8220   11.1280 C   0  0  0  0  0  0  0  0  0  0  0  0
   22.8280   25.8140   11.8550 C   0  0  0  0  0  0  0  0  0  0  0  0
   23.5490   26.9590   12.1460 C   0  0  0  0  0  0  0  0  0  0  0  0
   22.5460   25.1500   12.6570 H   0  0  0  0  0  0  0  0  0  0  0  0
   23.8260   27.1590   13.1730 H   0  0  0  0  0  0  0  0  0  0  0  0
   24.0350   28.1100    9.0150 H   0  0  0  0  0  0  0  0  0  0  0  0
   22.6870   26.1370    8.5000 H   0  0  0  0  0  0  0  0  0  0  0  0
   24.6540   29.1270   11.4620 C   0  0  0  0  0  0  0  0  0  0  0  0
   23.7840   30.3060   11.4310 N   0  0  0  0  0  0  0  0  0  0  0  0
   25.4780   29.3190   10.7740 H   0  0  0  0  0  0  0  0  0  0  0  0
   25.0700   29.0740   12.4700 H   0  0  0  0  0  0  0  0  0  0  0  0
   22.5420   30.1690   12.0760 C   0  0  0  0  0  0  0  0  0  0  0  0
   23.4610   30.8760   10.1370 C   0  0  0  0  0  0  0  0  0  0  0  0
   22.0400   30.3580    9.7800 C   0  0  0  0  0  0  0  0  0  0  0  0
   24.2060   30.6030    9.3930 H   0  0  0  0  0  0  0  0  0  0  0  0
   23.4530   31.9650   10.2250 H   0  0  0  0  0  0  0  0  0  0  0  0
   21.5970   29.6280   10.9920 N   0  0  0  0  0  4  0  0  0  0  0  0
   22.0430   29.6950    8.9170 H   0  0  0  0  0  0  0  0  0  0  0  0
   21.3610   31.1890    9.5940 H   0  0  0  0  0  0  0  0  0  0  0  0
   22.1440   31.1460   12.3710 H   0  0  0  0  0  0  0  0  0  0  0  0
   22.5690   29.4990   12.9340 H   0  0  0  0  0  0  0  0  0  0  0  0
   20.1580   29.7210   11.3130 C   0  0  0  0  0  0  0  0  0  0  0  0
   19.2760   29.3570   10.1190 C   0  0  0  0  0  0  0  0  0  0  0  0
   19.9410   30.7390   11.6430 H   0  0  0  0  0  0  0  0  0  0  0  0
   19.9700   29.0380   12.1450 H   0  0  0  0  0  0  0  0  0  0  0  0
   17.8300   29.0030   10.4650 C   0  0  0  0  0  0  0  0  0  0  0  0
   19.7440   28.5230    9.5960 H   0  0  0  0  0  0  0  0  0  0  0  0
   19.2960   30.1930    9.4220 H   0  0  0  0  0  0  0  0  0  0  0  0
   16.9770   28.8960    9.2070 C   0  0  0  0  0  0  0  0  0  0  0  0
   17.3870   29.7620   11.1180 H   0  0  0  0  0  0  0  0  0  0  0  0
   17.7860   28.0430   10.9880 H   0  0  0  0  0  0  0  0  0  0  0  0
   17.3760   28.1470    8.5240 H   0  0  0  0  0  0  0  0  0  0  0  0
   16.9540   29.8550    8.6990 H   0  0  0  0  0  0  0  0  0  0  0  0
   15.9570   28.6220    9.4620 H   0  0  0  0  0  0  0  0  0  0  0  0
   21.8450   28.6370   10.8740 H   0  0  0  0  0  0  0  0  0  0  0  0
   20.5500   11.4180   24.6630 C   0  0  0  0  0  0  0  0  0  0  0  0
   20.7900   11.5800   23.3670 C   0  0  0  0  0  0  0  0  0  0  0  0
   21.0780   10.6770   25.2370 H   0  0  0  0  0  0  0  0  0  0  0  0
   19.8200   11.9990   25.2020 H   0  0  0  0  0  0  0  0  0  0  0  0
   20.1280   12.5320   22.4840 C   0  0  0  0  0  0  0  0  0  0  0  0
   21.5120   10.9380   22.8790 H   0  0  0  0  0  0  0  0  0  0  0  0
   20.1240   12.2960   21.1060 C   0  0  0  0  0  0  0  0  0  0  0  0
   19.5070   13.1660   20.2310 C   0  0  0  0  0  0  0  0  0  0  0  0
   18.8620   14.3020   20.6980 C   0  0  0  0  0  0  0  0  0  0  0  0
   19.5070   13.6920   22.9510 C   0  0  0  0  0  0  0  0  0  0  0  0
   18.8740   14.5550   22.0750 C   0  0  0  0  0  0  0  0  0  0  0  0
   19.5290   13.9310   24.0030 H   0  0  0  0  0  0  0  0  0  0  0  0
   18.4230   15.4610   22.4610 H   0  0  0  0  0  0  0  0  0  0  0  0
   19.5740   12.9940   19.1700 H   0  0  0  0  0  0  0  0  0  0  0  0
   20.6180   11.4190   20.7200 H   0  0  0  0  0  0  0  0  0  0  0  0
   18.0710   15.1840   19.7610 C   0  0  0  0  0  0  0  0  0  0  0  0
   16.7600   14.6560   19.3740 N   0  0  0  0  0  0  0  0  0  0  0  0
   18.6270   15.3680   18.8410 H   0  0  0  0  0  0  0  0  0  0  0  0
   17.8890   16.1510   20.2370 H   0  0  0  0  0  0  0  0  0  0  0  0
   15.9730   14.1400   20.4200 C   0  0  0  0  0  0  0  0  0  0  0  0
   16.7180   13.6320   18.3480 C   0  0  0  0  0  0  0  0  0  0  0  0
   16.5560   12.2790   19.0940 C   0  0  0  0  0  0  0  0  0  0  0  0
   17.6100   13.6650   17.7270 H   0  0  0  0  0  0  0  0  0  0  0  0
   15.8520   13.8130   17.7070 H   0  0  0  0  0  0  0  0  0  0  0  0
   16.3750   12.6600   20.5150 N   0  0  0  0  0  4  0  0  0  0  0  0
   17.4270   11.6360   18.9820 H   0  0  0  0  0  0  0  0  0  0  0  0
   15.6690   11.7500   18.7490 H   0  0  0  0  0  0  0  0  0  0  0  0
   14.9110   14.1540   20.1540 H   0  0  0  0  0  0  0  0  0  0  0  0
   16.1300   14.6450   21.3720 H   0  0  0  0  0  0  0  0  0  0  0  0
   15.4540   11.8120   21.3000 C   0  0  0  0  0  0  0  0  0  0  0  0
   15.7990   10.3280   21.1860 C   0  0  0  0  0  0  0  0  0  0  0  0
   14.4350   11.9880   20.9490 H   0  0  0  0  0  0  0  0  0  0  0  0
   15.5240   12.1380   22.3410 H   0  0  0  0  0  0  0  0  0  0  0  0
   15.2030    9.4370   22.2760 C   0  0  0  0  0  0  0  0  0  0  0  0
   16.8850   10.2320   21.1870 H   0  0  0  0  0  0  0  0  0  0  0  0
   15.4720    9.9830   20.2060 H   0  0  0  0  0  0  0  0  0  0  0  0
   15.3950    7.9630   21.9430 C   0  0  0  0  0  0  0  0  0  0  0  0
   14.1310    9.6270   22.3920 H   0  0  0  0  0  0  0  0  0  0  0  0
   15.6860    9.6350   23.2370 H   0  0  0  0  0  0  0  0  0  0  0  0
   16.4500    7.7220   21.8210 H   0  0  0  0  0  0  0  0  0  0  0  0
   14.8730    7.7250   21.0230 H   0  0  0  0  0  0  0  0  0  0  0  0
   14.9880    7.3400   22.7350 H   0  0  0  0  0  0  0  0  0  0  0  0
   17.2990   12.6500   20.9680 H   0  0  0  0  0  0  0  0  0  0  0  0
    9.7270   19.5060    7.9690 C   0  0  0  0  0  0  0  0  0  0  0  0
   10.5100   20.5710    7.8340 C   0  0  0  0  0  0  0  0  0  0  0  0
    8.6570   19.5950    7.9180 H   0  0  0  0  0  0  0  0  0  0  0  0
   10.1100   18.5150    8.1440 H   0  0  0  0  0  0  0  0  0  0  0  0
   11.9660   20.5790    7.9030 C   0  0  0  0  0  0  0  0  0  0  0  0
   10.0600   21.5450    7.6940 H   0  0  0  0  0  0  0  0  0  0  0  0
   12.6290   21.7710    8.2070 C   0  0  0  0  0  0  0  0  0  0  0  0
   14.0040   21.8280    8.2880 C   0  0  0  0  0  0  0  0  0  0  0  0
   14.7740   20.6940    8.0760 C   0  0  0  0  0  0  0  0  0  0  0  0
   12.7430   19.4440    7.6580 C   0  0  0  0  0  0  0  0  0  0  0  0
   14.1210   19.4970    7.7560 C   0  0  0  0  0  0  0  0  0  0  0  0
   12.2700   18.5160    7.3750 H   0  0  0  0  0  0  0  0  0  0  0  0
   14.7000   18.6090    7.5340 H   0  0  0  0  0  0  0  0  0  0  0  0
   14.4910   22.7730    8.4610 H   0  0  0  0  0  0  0  0  0  0  0  0
   12.0510   22.6660    8.3770 H   0  0  0  0  0  0  0  0  0  0  0  0
   16.2680   20.7180    8.2960 C   0  0  0  0  0  0  0  0  0  0  0  0
   16.6880   20.6830    9.7000 N   0  0  0  0  0  0  0  0  0  0  0  0
   16.7090   21.6110    7.8520 H   0  0  0  0  0  0  0  0  0  0  0  0
   16.7230   19.8500    7.8140 H   0  0  0  0  0  0  0  0  0  0  0  0
   16.0400   19.7320   10.5100 C   0  0  0  0  0  0  0  0  0  0  0  0
   16.6160   21.9170   10.4590 C   0  0  0  0  0  0  0  0  0  0  0  0
   15.3120   21.8310   11.3010 C   0  0  0  0  0  0  0  0  0  0  0  0
   16.6340   22.7820    9.8010 H   0  0  0  0  0  0  0  0  0  0  0  0
   17.4860   21.9740   11.1190 H   0  0  0  0  0  0  0  0  0  0  0  0
   14.8020   20.4620   11.0530 N   0  0  0  0  0  4  0  0  0  0  0  0
   14.5740   22.5720   10.9990 H   0  0  0  0  0  0  0  0  0  0  0  0
   15.5280   21.9480   12.3620 H   0  0  0  0  0  0  0  0  0  0  0  0
   16.6540   19.4780   11.3810 H   0  0  0  0  0  0  0  0  0  0  0  0
   15.7530   18.8290    9.9740 H   0  0  0  0  0  0  0  0  0  0  0  0
   14.1390   19.8020   12.1970 C   0  0  0  0  0  0  0  0  0  0  0  0
   13.0470   20.6750   12.8120 C   0  0  0  0  0  0  0  0  0  0  0  0
   14.8960   19.5650   12.9470 H   0  0  0  0  0  0  0  0  0  0  0  0
   13.7130   18.8670   11.8260 H   0  0  0  0  0  0  0  0  0  0  0  0
   12.0370   19.9320   13.6860 C   0  0  0  0  0  0  0  0  0  0  0  0
   12.5250   21.1860   12.0020 H   0  0  0  0  0  0  0  0  0  0  0  0
   13.5320   21.4590   13.3930 H   0  0  0  0  0  0  0  0  0  0  0  0
   11.1450   20.9080   14.4440 C   0  0  0  0  0  0  0  0  0  0  0  0
   12.5470   19.2940   14.4160 H   0  0  0  0  0  0  0  0  0  0  0  0
   11.3970   19.2930   13.0710 H   0  0  0  0  0  0  0  0  0  0  0  0
   10.6120   21.5640   13.7580 H   0  0  0  0  0  0  0  0  0  0  0  0
   11.7510   21.5150   15.1090 H   0  0  0  0  0  0  0  0  0  0  0  0
   10.4180   20.3690   15.0440 H   0  0  0  0  0  0  0  0  0  0  0  0
   14.1370   20.5070   10.2690 H   0  0  0  0  0  0  0  0  0  0  0  0
  1  9  1  0  0  0  0
  1  5  1  0  0  0  0
  1  3  1  0  0  0  0
  1  4  1  0  0  0  0
  2 10  1  0  0  0  0
  2  8  1  0  0  0  0
  2  7  1  0  0  0  0
  2  6  1  0  0  0  0
  9 12  2  0  0  0  0
  9 13  2  0  0  0  0
 10 11  1  0  0  0  0
 11  9  1  0  0  0  0
 14 10  2  0  0  0  0
 15 10  2  0  0  0  0
 16 24  1  0  0  0  0
 16 20  1  0  0  0  0
 16 18  1  0  0  0  0
 16 19  1  0  0  0  0
 17 25  1  0  0  0  0
 17 23  1  0  0  0  0
 17 22  1  0  0  0  0
 17 21  1  0  0  0  0
 24 27  2  0  0  0  0
 25 26  1  0  0  0  0
 26 24  1  0  0  0  0
 28 24  2  0  0  0  0
 29 25  2  0  0  0  0
 30 25  2  0  0  0  0
 31 39  1  0  0  0  0
 31 35  1  0  0  0  0
 31 33  1  0  0  0  0
 31 34  1  0  0  0  0
 32 40  1  0  0  0  0
 32 38  1  0  0  0  0
 32 37  1  0  0  0  0
 32 36  1  0  0  0  0
 39 42  2  0  0  0  0
 39 43  2  0  0  0  0
 39 41  1  0  0  0  0
 40 41  1  0  0  0  0
 40 44  2  0  0  0  0
 40 45  2  0  0  0  0
 46 54  1  0  0  0  0
 46 50  1  0  0  0  0
 46 48  1  0  0  0  0
 46 49  1  0  0  0  0
 47 55  1  0  0  0  0
 47 53  1  0  0  0  0
 47 52  1  0  0  0  0
 47 51  1  0  0  0  0
 54 57  2  0  0  0  0
 54 56  1  0  0  0  0
 55 56  1  0  0  0  0
 55 60  2  0  0  0  0
 58 54  2  0  0  0  0
 59 55  2  0  0  0  0
 61 69  1  0  0  0  0
 61 65  1  0  0  0  0
 61 63  1  0  0  0  0
 61 64  1  0  0  0  0
 62 70  1  0  0  0  0
 62 68  1  0  0  0  0
 62 67  1  0  0  0  0
 62 66  1  0  0  0  0
 69 72  2  0  0  0  0
 69 73  2  0  0  0  0
 70 71  1  0  0  0  0
 70 74  2  0  0  0  0
 70 75  2  0  0  0  0
 71 69  1  0  0  0  0
 76 84  1  0  0  0  0
 76 80  1  0  0  0  0
 76 78  1  0  0  0  0
 76 79  1  0  0  0  0
 77 85  1  0  0  0  0
 77 83  1  0  0  0  0
 77 82  1  0  0  0  0
 77 81  1  0  0  0  0
 84 87  2  0  0  0  0
 84 86  1  0  0  0  0
 85 86  1  0  0  0  0
 85 90  2  0  0  0  0
 85 89  2  0  0  0  0
 88 84  2  0  0  0  0
 91 99  1  0  0  0  0
 91 95  1  0  0  0  0
 91 93  1  0  0  0  0
 91 94  1  0  0  0  0
 92100  1  0  0  0  0
 92 98  1  0  0  0  0
 92 97  1  0  0  0  0
 92 96  1  0  0  0  0
 99102  2  0  0  0  0
100101  1  0  0  0  0
100104  2  0  0  0  0
101 99  1  0  0  0  0
103 99  2  0  0  0  0
105100  2  0  0  0  0
106114  1  0  0  0  0
106110  1  0  0  0  0
106108  1  0  0  0  0
106109  1  0  0  0  0
107115  1  0  0  0  0
107113  1  0  0  0  0
107112  1  0  0  0  0
107111  1  0  0  0  0
114117  2  0  0  0  0
114118  2  0  0  0  0
115116  1  0  0  0  0
115119  2  0  0  0  0
116114  1  0  0  0  0
120115  2  0  0  0  0
121129  1  0  0  0  0
121125  1  0  0  0  0
121123  1  0  0  0  0
121124  1  0  0  0  0
122130  1  0  0  0  0
122128  1  0  0  0  0
122127  1  0  0  0  0
122126  1  0  0  0  0
129132  2  0  0  0  0
129131  1  0  0  0  0
130131  1  0  0  0  0
130135  2  0  0  0  0
133129  2  0  0  0  0
134130  2  0  0  0  0
136144  1  0  0  0  0
136140  1  0  0  0  0
136138  1  0  0  0  0
136139  1  0  0  0  0
137145  1  0  0  0  0
137143  1  0  0  0  0
137142  1  0  0  0  0
137141  1  0  0  0  0
144147  2  0  0  0  0
144148  2  0  0  0  0
145146  1  0  0  0  0
145150  2  0  0  0  0
145149  2  0  0  0  0
146144  1  0  0  0  0
151159  1  0  0  0  0
151155  1  0  0  0  0
151153  1  0  0  0  0
151154  1  0  0  0  0
152160  1  0  0  0  0
152158  1  0  0  0  0
152157  1  0  0  0  0
152156  1  0  0  0  0
159162  2  0  0  0  0
159161  1  0  0  0  0
160161  1  0  0  0  0
160165  2  0  0  0  0
163159  2  0  0  0  0
164160  2  0  0  0  0
166174  1  0  0  0  0
166170  1  0  0  0  0
166168  1  0  0  0  0
166169  1  0  0  0  0
167175  1  0  0  0  0
167173  1  0  0  0  0
167172  1  0  0  0  0
167171  1  0  0  0  0
174177  2  0  0  0  0
174178  2  0  0  0  0
175176  1  0  0  0  0
175180  2  0  0  0  0
175179  2  0  0  0  0
176174  1  0  0  0  0
181189  1  0  0  0  0
181185  1  0  0  0  0
181183  1  0  0  0  0
181184  1  0  0  0  0
182190  1  0  0  0  0
182188  1  0  0  0  0
182187  1  0  0  0  0
182186  1  0  0  0  0
189192  2  0  0  0  0
189191  1  0  0  0  0
189193  2  0  0  0  0
190191  1  0  0  0  0
190195  2  0  0  0  0
194190  2  0  0  0  0
196204  1  0  0  0  0
196200  1  0  0  0  0
196198  1  0  0  0  0
196199  1  0  0  0  0
197205  1  0  0  0  0
197203  1  0  0  0  0
197202  1  0  0  0  0
197201  1  0  0  0  0
204207  2  0  0  0  0
204208  2  0  0  0  0
205206  1  0  0  0  0
205210  2  0  0  0  0
205209  2  0  0  0  0
206204  1  0  0  0  0
211219  1  0  0  0  0
211215  1  0  0  0  0
211213  1  0  0  0  0
211214  1  0  0  0  0
212220  1  0  0  0  0
212218  1  0  0  0  0
212217  1  0  0  0  0
212216  1  0  0  0  0
219222  2  0  0  0  0
220221  1  0  0  0  0
221219  1  0  0  0  0
223219  2  0  0  0  0
224220  2  0  0  0  0
225220  2  0  0  0  0
226227  2  0  0  0  0
226228  1  0  0  0  0
226229  1  0  0  0  0
227230  1  0  0  0  0
227231  1  0  0  0  0
230235  2  0  0  0  0
230232  1  0  0  0  0
232233  2  0  0  0  0
232240  1  0  0  0  0
233234  1  0  0  0  0
233239  1  0  0  0  0
234236  2  0  0  0  0
234241  1  0  0  0  0
235237  1  0  0  0  0
235236  1  0  0  0  0
236238  1  0  0  0  0
241244  1  0  0  0  0
241243  1  0  0  0  0
241242  1  0  0  0  0
242245  1  0  0  0  0
242246  1  0  0  0  0
245254  1  0  0  0  0
245250  1  0  0  0  0
245253  1  0  0  0  0
246248  1  0  0  0  0
246249  1  0  0  0  0
246247  1  0  0  0  0
247250  1  0  0  0  0
247251  1  0  0  0  0
247252  1  0  0  0  0
250268  1  0  0  0  0
250255  1  0  0  0  0
255258  1  0  0  0  0
255257  1  0  0  0  0
255256  1  0  0  0  0
256260  1  0  0  0  0
256261  1  0  0  0  0
256259  1  0  0  0  0
259264  1  0  0  0  0
259263  1  0  0  0  0
259262  1  0  0  0  0
262265  1  0  0  0  0
262267  1  0  0  0  0
262266  1  0  0  0  0
269270  2  0  0  0  0
269271  1  0  0  0  0
269272  1  0  0  0  0
270273  1  0  0  0  0
270274  1  0  0  0  0
273278  2  0  0  0  0
273275  1  0  0  0  0
275276  2  0  0  0  0
275283  1  0  0  0  0
276277  1  0  0  0  0
276282  1  0  0  0  0
277279  2  0  0  0  0
277284  1  0  0  0  0
278280  1  0  0  0  0
278279  1  0  0  0  0
279281  1  0  0  0  0
284287  1  0  0  0  0
284286  1  0  0  0  0
284285  1  0  0  0  0
285288  1  0  0  0  0
285289  1  0  0  0  0
288297  1  0  0  0  0
288293  1  0  0  0  0
288296  1  0  0  0  0
289291  1  0  0  0  0
289292  1  0  0  0  0
289290  1  0  0  0  0
290293  1  0  0  0  0
290294  1  0  0  0  0
290295  1  0  0  0  0
293311  1  0  0  0  0
293298  1  0  0  0  0
298301  1  0  0  0  0
298300  1  0  0  0  0
298299  1  0  0  0  0
299303  1  0  0  0  0
299304  1  0  0  0  0
299302  1  0  0  0  0
302307  1  0  0  0  0
302306  1  0  0  0  0
302305  1  0  0  0  0
305308  1  0  0  0  0
305310  1  0  0  0  0
305309  1  0  0  0  0
312313  2  0  0  0  0
312314  1  0  0  0  0
312315  1  0  0  0  0
313316  1  0  0  0  0
313317  1  0  0  0  0
316321  2  0  0  0  0
316318  1  0  0  0  0
318319  2  0  0  0  0
318326  1  0  0  0  0
319320  1  0  0  0  0
319325  1  0  0  0  0
320322  2  0  0  0  0
320327  1  0  0  0  0
321323  1  0  0  0  0
321322  1  0  0  0  0
322324  1  0  0  0  0
327330  1  0  0  0  0
327329  1  0  0  0  0
327328  1  0  0  0  0
328331  1  0  0  0  0
328332  1  0  0  0  0
331340  1  0  0  0  0
331336  1  0  0  0  0
331339  1  0  0  0  0
332334  1  0  0  0  0
332335  1  0  0  0  0
332333  1  0  0  0  0
333336  1  0  0  0  0
333337  1  0  0  0  0
333338  1  0  0  0  0
336354  1  0  0  0  0
336341  1  0  0  0  0
341344  1  0  0  0  0
341343  1  0  0  0  0
341342  1  0  0  0  0
342346  1  0  0  0  0
342347  1  0  0  0  0
342345  1  0  0  0  0
345350  1  0  0  0  0
345349  1  0  0  0  0
345348  1  0  0  0  0
348351  1  0  0  0  0
348353  1  0  0  0  0
348352  1  0  0  0  0
355356  2  0  0  0  0
355357  1  0  0  0  0
355358  1  0  0  0  0
356359  1  0  0  0  0
356360  1  0  0  0  0
359364  2  0  0  0  0
359361  1  0  0  0  0
361362  2  0  0  0  0
361369  1  0  0  0  0
362363  1  0  0  0  0
362368  1  0  0  0  0
363365  2  0  0  0  0
363370  1  0  0  0  0
364366  1  0  0  0  0
364365  1  0  0  0  0
365367  1  0  0  0  0
370373  1  0  0  0  0
370372  1  0  0  0  0
370371  1  0  0  0  0
371374  1  0  0  0  0
371375  1  0  0  0  0
374383  1  0  0  0  0
374379  1  0  0  0  0
374382  1  0  0  0  0
375377  1  0  0  0  0
375378  1  0  0  0  0
375376  1  0  0  0  0
376379  1  0  0  0  0
376380  1  0  0  0  0
376381  1  0  0  0  0
379397  1  0  0  0  0
379384  1  0  0  0  0
384387  1  0  0  0  0
384386  1  0  0  0  0
384385  1  0  0  0  0
385389  1  0  0  0  0
385390  1  0  0  0  0
385388  1  0  0  0  0
388393  1  0  0  0  0
388392  1  0  0  0  0
388391  1  0  0  0  0
391394  1  0  0  0  0
391396  1  0  0  0  0
391395  1  0  0  0  0
398399  2  0  0  0  0
398400  1  0  0  0  0
398401  1  0  0  0  0
399402  1  0  0  0  0
399403  1  0  0  0  0
402407  2  0  0  0  0
402404  1  0  0  0  0
404405  2  0  0  0  0
404412  1  0  0  0  0
405406  1  0  0  0  0
405411  1  0  0  0  0
406408  2  0  0  0  0
406413  1  0  0  0  0
407409  1  0  0  0  0
407408  1  0  0  0  0
408410  1  0  0  0  0
413416  1  0  0  0  0
413415  1  0  0  0  0
413414  1  0  0  0  0
414417  1  0  0  0  0
414418  1  0  0  0  0
417426  1  0  0  0  0
417422  1  0  0  0  0
417425  1  0  0  0  0
418420  1  0  0  0  0
418421  1  0  0  0  0
418419  1  0  0  0  0
419422  1  0  0  0  0
419423  1  0  0  0  0
419424  1  0  0  0  0
422440  1  0  0  0  0
422427  1  0  0  0  0
427430  1  0  0  0  0
427429  1  0  0  0  0
427428  1  0  0  0  0
428432  1  0  0  0  0
428433  1  0  0  0  0
428431  1  0  0  0  0
431436  1  0  0  0  0
431435  1  0  0  0  0
431434  1  0  0  0  0
434437  1  0  0  0  0
434439  1  0  0  0  0
434438  1  0  0  0  0
441442  2  0  0  0  0
441443  1  0  0  0  0
441444  1  0  0  0  0
442445  1  0  0  0  0
442446  1  0  0  0  0
445450  2  0  0  0  0
445447  1  0  0  0  0
447448  2  0  0  0  0
447455  1  0  0  0  0
448449  1  0  0  0  0
448454  1  0  0  0  0
449451  2  0  0  0  0
449456  1  0  0  0  0
450452  1  0  0  0  0
450451  1  0  0  0  0
451453  1  0  0  0  0
456459  1  0  0  0  0
456458  1  0  0  0  0
456457  1  0  0  0  0
457460  1  0  0  0  0
457461  1  0  0  0  0
460469  1  0  0  0  0
460465  1  0  0  0  0
460468  1  0  0  0  0
461463  1  0  0  0  0
461464  1  0  0  0  0
461462  1  0  0  0  0
462465  1  0  0  0  0
462466  1  0  0  0  0
462467  1  0  0  0  0
465483  1  0  0  0  0
465470  1  0  0  0  0
470473  1  0  0  0  0
470472  1  0  0  0  0
470471  1  0  0  0  0
471475  1  0  0  0  0
471476  1  0  0  0  0
471474  1  0  0  0  0
474479  1  0  0  0  0
474478  1  0  0  0  0
474477  1  0  0  0  0
477480  1  0  0  0  0
477482  1  0  0  0  0
477481  1  0  0  0  0
484485  2  0  0  0  0
484486  1  0  0  0  0
484487  1  0  0  0  0
485488  1  0  0  0  0
485489  1  0  0  0  0
488493  2  0  0  0  0
488490  1  0  0  0  0
490491  2  0  0  0  0
490498  1  0  0  0  0
491492  1  0  0  0  0
491497  1  0  0  0  0
492494  2  0  0  0  0
492499  1  0  0  0  0
493495  1  0  0  0  0
493494  1  0  0  0  0
494496  1  0  0  0  0
499502  1  0  0  0  0
499501  1  0  0  0  0
499500  1  0  0  0  0
500503  1  0  0  0  0
500504  1  0  0  0  0
503512  1  0  0  0  0
503508  1  0  0  0  0
503511  1  0  0  0  0
504506  1  0  0  0  0
504507  1  0  0  0  0
504505  1  0  0  0  0
505508  1  0  0  0  0
505509  1  0  0  0  0
505510  1  0  0  0  0
508526  1  0  0  0  0
508513  1  0  0  0  0
513516  1  0  0  0  0
513515  1  0  0  0  0
513514  1  0  0  0  0
514518  1  0  0  0  0
514519  1  0  0  0  0
514517  1  0  0  0  0
517522  1  0  0  0  0
517521  1  0  0  0  0
517520  1  0  0  0  0
520523  1  0  0  0  0
520525  1  0  0  0  0
520524  1  0  0  0  0
527528  2  0  0  0  0
527529  1  0  0  0  0
527530  1  0  0  0  0
528531  1  0  0  0  0
528532  1  0  0  0  0
531536  2  0  0  0  0
531533  1  0  0  0  0
533534  2  0  0  0  0
533541  1  0  0  0  0
534535  1  0  0  0  0
534540  1  0  0  0  0
535537  2  0  0  0  0
535542  1  0  0  0  0
536538  1  0  0  0  0
536537  1  0  0  0  0
537539  1  0  0  0  0
542545  1  0  0  0  0
542544  1  0  0  0  0
542543  1  0  0  0  0
543546  1  0  0  0  0
543547  1  0  0  0  0
546555  1  0  0  0  0
546551  1  0  0  0  0
546554  1  0  0  0  0
547549  1  0  0  0  0
547550  1  0  0  0  0
547548  1  0  0  0  0
548551  1  0  0  0  0
548552  1  0  0  0  0
548553  1  0  0  0  0
551569  1  0  0  0  0
551556  1  0  0  0  0
556559  1  0  0  0  0
556558  1  0  0  0  0
556557  1  0  0  0  0
557561  1  0  0  0  0
557562  1  0  0  0  0
557560  1  0  0  0  0
560565  1  0  0  0  0
560564  1  0  0  0  0
560563  1  0  0  0  0
563566  1  0  0  0  0
563568  1  0  0  0  0
563567  1  0  0  0  0
570571  2  0  0  0  0
570572  1  0  0  0  0
570573  1  0  0  0  0
571574  1  0  0  0  0
571575  1  0  0  0  0
574579  2  0  0  0  0
574576  1  0  0  0  0
576577  2  0  0  0  0
576584  1  0  0  0  0
577578  1  0  0  0  0
577583  1  0  0  0  0
578580  2  0  0  0  0
578585  1  0  0  0  0
579581  1  0  0  0  0
579580  1  0  0  0  0
580582  1  0  0  0  0
585588  1  0  0  0  0
585587  1  0  0  0  0
585586  1  0  0  0  0
586589  1  0  0  0  0
586590  1  0  0  0  0
589598  1  0  0  0  0
589594  1  0  0  0  0
589597  1  0  0  0  0
590592  1  0  0  0  0
590593  1  0  0  0  0
590591  1  0  0  0  0
591594  1  0  0  0  0
591595  1  0  0  0  0
591596  1  0  0  0  0
594612  1  0  0  0  0
594599  1  0  0  0  0
599602  1  0  0  0  0
599601  1  0  0  0  0
599600  1  0  0  0  0
600604  1  0  0  0  0
600605  1  0  0  0  0
600603  1  0  0  0  0
603608  1  0  0  0  0
603607  1  0  0  0  0
603606  1  0  0  0  0
606609  1  0  0  0  0
606611  1  0  0  0  0
606610  1  0  0  0  0
613614  2  0  0  0  0
613615  1  0  0  0  0
613616  1  0  0  0  0
614617  1  0  0  0  0
614618  1  0  0  0  0
617622  2  0  0  0  0
617619  1  0  0  0  0
619620  2  0  0  0  0
619627  1  0  0  0  0
620621  1  0  0  0  0
620626  1  0  0  0  0
621623  2  0  0  0  0
621628  1  0  0  0  0
622624  1  0  0  0  0
622623  1  0  0  0  0
623625  1  0  0  0  0
628631  1  0  0  0  0
628630  1  0  0  0  0
628629  1  0  0  0  0
629632  1  0  0  0  0
629633  1  0  0  0  0
632641  1  0  0  0  0
632637  1  0  0  0  0
632640  1  0  0  0  0
633635  1  0  0  0  0
633636  1  0  0  0  0
633634  1  0  0  0  0
634637  1  0  0  0  0
634638  1  0  0  0  0
634639  1  0  0  0  0
637655  1  0  0  0  0
637642  1  0  0  0  0
642645  1  0  0  0  0
642644  1  0  0  0  0
642643  1  0  0  0  0
643647  1  0  0  0  0
643648  1  0  0  0  0
643646  1  0  0  0  0
646651  1  0  0  0  0
646650  1  0  0  0  0
646649  1  0  0  0  0
649652  1  0  0  0  0
649654  1  0  0  0  0
649653  1  0  0  0  0
656657  2  0  0  0  0
656658  1  0  0  0  0
656659  1  0  0  0  0
657660  1  0  0  0  0
657661  1  0  0  0  0
660665  2  0  0  0  0
660662  1  0  0  0  0
662663  2  0  0  0  0
662670  1  0  0  0  0
663664  1  0  0  0  0
663669  1  0  0  0  0
664666  2  0  0  0  0
664671  1  0  0  0  0
665667  1  0  0  0  0
665666  1  0  0  0  0
666668  1  0  0  0  0
671674  1  0  0  0  0
671673  1  0  0  0  0
671672  1  0  0  0  0
672675  1  0  0  0  0
672676  1  0  0  0  0
675684  1  0  0  0  0
675680  1  0  0  0  0
675683  1  0  0  0  0
676678  1  0  0  0  0
676679  1  0  0  0  0
676677  1  0  0  0  0
677680  1  0  0  0  0
677681  1  0  0  0  0
677682  1  0  0  0  0
680698  1  0  0  0  0
680685  1  0  0  0  0
685688  1  0  0  0  0
685687  1  0  0  0  0
685686  1  0  0  0  0
686690  1  0  0  0  0
686691  1  0  0  0  0
686689  1  0  0  0  0
689694  1  0  0  0  0
689693  1  0  0  0  0
689692  1  0  0  0  0
692695  1  0  0  0  0
692697  1  0  0  0  0
692696  1  0  0  0  0
699700  2  0  0  0  0
699701  1  0  0  0  0
699702  1  0  0  0  0
700703  1  0  0  0  0
700704  1  0  0  0  0
703708  2  0  0  0  0
703705  1  0  0  0  0
705706  2  0  0  0  0
705713  1  0  0  0  0
706707  1  0  0  0  0
706712  1  0  0  0  0
707709  2  0  0  0  0
707714  1  0  0  0  0
708710  1  0  0  0  0
708709  1  0  0  0  0
709711  1  0  0  0  0
714717  1  0  0  0  0
714716  1  0  0  0  0
714715  1  0  0  0  0
715718  1  0  0  0  0
715719  1  0  0  0  0
718727  1  0  0  0  0
718723  1  0  0  0  0
718726  1  0  0  0  0
719721  1  0  0  0  0
719722  1  0  0  0  0
719720  1  0  0  0  0
720723  1  0  0  0  0
720724  1  0  0  0  0
720725  1  0  0  0  0
723741  1  0  0  0  0
723728  1  0  0  0  0
728731  1  0  0  0  0
728730  1  0  0  0  0
728729  1  0  0  0  0
729733  1  0  0  0  0
729734  1  0  0  0  0
729732  1  0  0  0  0
732737  1  0  0  0  0
732736  1  0  0  0  0
732735  1  0  0  0  0
735738  1  0  0  0  0
735740  1  0  0  0  0
735739  1  0  0  0  0
742743  2  0  0  0  0
742744  1  0  0  0  0
742745  1  0  0  0  0
743746  1  0  0  0  0
743747  1  0  0  0  0
746751  2  0  0  0  0
746748  1  0  0  0  0
748749  2  0  0  0  0
748756  1  0  0  0  0
749750  1  0  0  0  0
749755  1  0  0  0  0
750752  2  0  0  0  0
750757  1  0  0  0  0
751753  1  0  0  0  0
751752  1  0  0  0  0
752754  1  0  0  0  0
757760  1  0  0  0  0
757759  1  0  0  0  0
757758  1  0  0  0  0
758761  1  0  0  0  0
758762  1  0  0  0  0
761770  1  0  0  0  0
761766  1  0  0  0  0
761769  1  0  0  0  0
762764  1  0  0  0  0
762765  1  0  0  0  0
762763  1  0  0  0  0
763766  1  0  0  0  0
763767  1  0  0  0  0
763768  1  0  0  0  0
766784  1  0  0  0  0
766771  1  0  0  0  0
771774  1  0  0  0  0
771773  1  0  0  0  0
771772  1  0  0  0  0
772776  1  0  0  0  0
772777  1  0  0  0  0
772775  1  0  0  0  0
775780  1  0  0  0  0
775779  1  0  0  0  0
775778  1  0  0  0  0
778781  1  0  0  0  0
778783  1  0  0  0  0
778782  1  0  0  0  0
785786  2  0  0  0  0
785787  1  0  0  0  0
785788  1  0  0  0  0
786789  1  0  0  0  0
786790  1  0  0  0  0
789794  2  0  0  0  0
789791  1  0  0  0  0
791792  2  0  0  0  0
791799  1  0  0  0  0
792793  1  0  0  0  0
792798  1  0  0  0  0
793795  2  0  0  0  0
793800  1  0  0  0  0
794796  1  0  0  0  0
794795  1  0  0  0  0
795797  1  0  0  0  0
800803  1  0  0  0  0
800802  1  0  0  0  0
800801  1  0  0  0  0
801804  1  0  0  0  0
801805  1  0  0  0  0
804813  1  0  0  0  0
804809  1  0  0  0  0
804812  1  0  0  0  0
805807  1  0  0  0  0
805808  1  0  0  0  0
805806  1  0  0  0  0
806809  1  0  0  0  0
806810  1  0  0  0  0
806811  1  0  0  0  0
809827  1  0  0  0  0
809814  1  0  0  0  0
814817  1  0  0  0  0
814816  1  0  0  0  0
814815  1  0  0  0  0
815819  1  0  0  0  0
815820  1  0  0  0  0
815818  1  0  0  0  0
818823  1  0  0  0  0
818822  1  0  0  0  0
818821  1  0  0  0  0
821824  1  0  0  0  0
821826  1  0  0  0  0
821825  1  0  0  0  0
828829  2  0  0  0  0
828830  1  0  0  0  0
828831  1  0  0  0  0
829832  1  0  0  0  0
829833  1  0  0  0  0
832837  2  0  0  0  0
832834  1  0  0  0  0
834835  2  0  0  0  0
834842  1  0  0  0  0
835836  1  0  0  0  0
835841  1  0  0  0  0
836838  2  0  0  0  0
836843  1  0  0  0  0
837839  1  0  0  0  0
837838  1  0  0  0  0
838840  1  0  0  0  0
843846  1  0  0  0  0
843845  1  0  0  0  0
843844  1  0  0  0  0
844847  1  0  0  0  0
844848  1  0  0  0  0
847856  1  0  0  0  0
847852  1  0  0  0  0
847855  1  0  0  0  0
848850  1  0  0  0  0
848851  1  0  0  0  0
848849  1  0  0  0  0
849852  1  0  0  0  0
849853  1  0  0  0  0
849854  1  0  0  0  0
852870  1  0  0  0  0
852857  1  0  0  0  0
857860  1  0  0  0  0
857859  1  0  0  0  0
857858  1  0  0  0  0
858862  1  0  0  0  0
858863  1  0  0  0  0
858861  1  0  0  0  0
861866  1  0  0  0  0
861865  1  0  0  0  0
861864  1  0  0  0  0
864867  1  0  0  0  0
864869  1  0  0  0  0
864868  1  0  0  0  0
M  END
>  <HEADER>
 

>  <TITLE>
    Built with Packmol                                             

>  <REMARK>
   Packmol generated pdb file 
   Home-Page: http://m3g.iqm.unicamp.br/packmol


$$$$
