 xtb: 6.7.1 (edcfbbe)
          10212513353D

116116  0     0  0            999 V2000
    2.2423    4.4168    1.5643 C   0  0  0  0  0  0  0  0  0  0  0  0
    4.2526    8.0341    3.6376 C   0  0  0  0  0  0  0  0  0  0  0  0
    2.8705    5.4021    0.9349 F   0  0  0  0  0  0  0  0  0  0  0  0
    3.0653    3.3600    1.6224 F   0  0  0  0  0  0  0  0  0  0  0  0
    1.2039    4.0517    0.8119 F   0  0  0  0  0  0  0  0  0  0  0  0
    3.8497    8.8623    4.6032 F   0  0  0  0  0  0  0  0  0  0  0  0
    5.5782    8.1545    3.5352 F   0  0  0  0  0  0  0  0  0  0  0  0
    3.7242    8.4525    2.4934 F   0  0  0  0  0  0  0  0  0  0  0  0
    1.6886    4.8925    3.3201 S   0  0  0  0  0  0  0  0  0  0  0  0
    3.7466    6.2645    4.0063 S   0  0  0  0  0  0  0  0  0  0  0  0
    2.2286    6.3425    3.5536 N   0  0  0  0  0  0  0  0  0  0  0  0
    0.2727    4.7762    3.3070 O   0  0  0  0  0  0  0  0  0  0  0  0
    2.4058    3.9236    4.1303 O   0  0  0  0  0  0  0  0  0  0  0  0
    3.9465    6.0807    5.4111 O   0  0  0  0  0  0  0  0  0  0  0  0
    4.5462    5.4383    3.1510 O   0  0  0  0  0  0  0  0  0  0  0  0
   10.1438    7.5319    8.6855 C   0  0  0  0  0  0  0  0  0  0  0  0
    8.3275    4.0157   10.2514 C   0  0  0  0  0  0  0  0  0  0  0  0
   10.0548    6.2872    8.2252 F   0  0  0  0  0  0  0  0  0  0  0  0
    9.1084    8.2337    8.2152 F   0  0  0  0  0  0  0  0  0  0  0  0
   11.2403    8.0768    8.1478 F   0  0  0  0  0  0  0  0  0  0  0  0
    8.8660    3.2196   11.1678 F   0  0  0  0  0  0  0  0  0  0  0  0
    7.0638    3.5975   10.0583 F   0  0  0  0  0  0  0  0  0  0  0  0
    8.9723    3.8163    9.1035 F   0  0  0  0  0  0  0  0  0  0  0  0
   10.2383    7.5531   10.5857 S   0  0  0  0  0  0  0  0  0  0  0  0
    8.3279    5.8156   10.8130 S   0  0  0  0  0  0  0  0  0  0  0  0
    9.8699    6.0734   10.9832 N   0  0  0  0  0  0  0  0  0  0  0  0
   11.5875    7.8931   10.8784 O   0  0  0  0  0  0  0  0  0  0  0  0
    9.2214    8.5022   10.9689 O   0  0  0  0  0  0  0  0  0  0  0  0
    7.5523    5.7775   12.0157 O   0  0  0  0  0  0  0  0  0  0  0  0
    7.7431    6.5558    9.7274 O   0  0  0  0  0  0  0  0  0  0  0  0
    9.1702    5.3430    5.4522 C   0  0  0  0  0  0  0  0  0  0  0  0
    8.2813    6.3285    5.4215 C   0  0  0  0  0  0  0  0  0  0  0  0
    9.9467    5.2674    4.7105 H   0  0  0  0  0  0  0  0  0  0  0  0
    9.1853    4.6021    6.2329 H   0  0  0  0  0  0  0  0  0  0  0  0
    7.1928    6.5323    6.3696 C   0  0  0  0  0  0  0  0  0  0  0  0
    8.3422    7.0756    4.6401 H   0  0  0  0  0  0  0  0  0  0  0  0
    6.7321    5.5277    7.2152 C   0  0  0  0  0  0  0  0  0  0  0  0
    5.6618    5.7450    8.0566 C   0  0  0  0  0  0  0  0  0  0  0  0
    5.0173    6.9724    8.0945 C   0  0  0  0  0  0  0  0  0  0  0  0
    6.5532    7.7692    6.4185 C   0  0  0  0  0  0  0  0  0  0  0  0
    5.4872    7.9874    7.2670 C   0  0  0  0  0  0  0  0  0  0  0  0
    6.8946    8.5649    5.7721 H   0  0  0  0  0  0  0  0  0  0  0  0
    4.9780    8.9420    7.2259 H   0  0  0  0  0  0  0  0  0  0  0  0
    5.3115    4.9436    8.6911 H   0  0  0  0  0  0  0  0  0  0  0  0
    7.2136    4.5638    7.2080 H   0  0  0  0  0  0  0  0  0  0  0  0
    3.8220    7.1733    8.9922 C   0  0  0  0  0  0  0  0  0  0  0  0
    4.0385    7.9729   10.1992 N   0  0  0  0  0  0  0  0  0  0  0  0
    3.4555    6.2033    9.3319 H   0  0  0  0  0  0  0  0  0  0  0  0
    3.0165    7.6555    8.4320 H   0  0  0  0  0  0  0  0  0  0  0  0
    4.3472    9.3418    9.9924 C   0  0  0  0  0  0  0  0  0  0  0  0
    5.0582    7.4651   11.1247 C   0  0  0  0  0  0  0  0  0  0  0  0
    6.0926    8.5915   11.2854 C   0  0  0  0  0  0  0  0  0  0  0  0
    5.5390    6.5738   10.7241 H   0  0  0  0  0  0  0  0  0  0  0  0
    4.6022    7.2146   12.0845 H   0  0  0  0  0  0  0  0  0  0  0  0
    5.8459    9.4566   10.1113 N   0  0  0  0  0  0  0  0  0  0  0  0
    7.1167    8.2223   11.2954 H   0  0  0  0  0  0  0  0  0  0  0  0
    5.9028    9.1743   12.1880 H   0  0  0  0  0  0  0  0  0  0  0  0
    3.9358    9.9512   10.8095 H   0  0  0  0  0  0  0  0  0  0  0  0
    3.9808    9.7164    9.0366 H   0  0  0  0  0  0  0  0  0  0  0  0
    6.3305   10.8477   10.2131 C   0  0  0  0  0  0  0  0  0  0  0  0
    7.7694   11.0068    9.7356 C   0  0  0  0  0  0  0  0  0  0  0  0
    6.2386   11.1576   11.2559 H   0  0  0  0  0  0  0  0  0  0  0  0
    5.6697   11.4756    9.6099 H   0  0  0  0  0  0  0  0  0  0  0  0
    7.8941   11.0374    8.2114 C   0  0  0  0  0  0  0  0  0  0  0  0
    8.3725   10.1936   10.1425 H   0  0  0  0  0  0  0  0  0  0  0  0
    8.1596   11.9419   10.1400 H   0  0  0  0  0  0  0  0  0  0  0  0
    7.3020   12.2967    7.5841 C   0  0  0  0  0  0  0  0  0  0  0  0
    7.4306   10.1514    7.7756 H   0  0  0  0  0  0  0  0  0  0  0  0
    8.9538   10.9909    7.9633 H   0  0  0  0  0  0  0  0  0  0  0  0
    6.2240   12.3559    7.7211 H   0  0  0  0  0  0  0  0  0  0  0  0
    7.4980   12.3076    6.5155 H   0  0  0  0  0  0  0  0  0  0  0  0
    7.7505   13.1863    8.0205 H   0  0  0  0  0  0  0  0  0  0  0  0
    6.2810    8.9870    9.2999 H   0  0  0  0  0  0  0  0  0  0  0  0
   11.7658    6.0906    1.6860 C   0  0  0  0  0  0  0  0  0  0  0  0
   11.3791    4.8213    1.6512 C   0  0  0  0  0  0  0  0  0  0  0  0
   12.7844    6.3722    1.4813 H   0  0  0  0  0  0  0  0  0  0  0  0
   11.0931    6.8957    1.9265 H   0  0  0  0  0  0  0  0  0  0  0  0
   10.0360    4.3196    1.9192 C   0  0  0  0  0  0  0  0  0  0  0  0
   12.1110    4.0544    1.4272 H   0  0  0  0  0  0  0  0  0  0  0  0
    8.9142    5.1476    1.9704 C   0  0  0  0  0  0  0  0  0  0  0  0
    7.6630    4.6309    2.2441 C   0  0  0  0  0  0  0  0  0  0  0  0
    7.4950    3.2695    2.4607 C   0  0  0  0  0  0  0  0  0  0  0  0
    9.8550    2.9523    2.1383 C   0  0  0  0  0  0  0  0  0  0  0  0
    8.6046    2.4345    2.4065 C   0  0  0  0  0  0  0  0  0  0  0  0
   10.7111    2.2932    2.1008 H   0  0  0  0  0  0  0  0  0  0  0  0
    8.4783    1.3760    2.5789 H   0  0  0  0  0  0  0  0  0  0  0  0
    6.8012    5.2798    2.2941 H   0  0  0  0  0  0  0  0  0  0  0  0
    9.0191    6.2054    1.7876 H   0  0  0  0  0  0  0  0  0  0  0  0
    6.1287    2.7111    2.7488 C   0  0  0  0  0  0  0  0  0  0  0  0
    6.1718    1.8925    3.9636 N   0  0  0  0  0  0  0  0  0  0  0  0
    5.8258    2.0525    1.9293 H   0  0  0  0  0  0  0  0  0  0  0  0
    5.4120    3.5345    2.8229 H   0  0  0  0  0  0  0  0  0  0  0  0
    4.9686    1.2170    4.2817 C   0  0  0  0  0  0  0  0  0  0  0  0
    6.4828    2.6427    5.1658 C   0  0  0  0  0  0  0  0  0  0  0  0
    5.1213    3.0689    5.7628 C   0  0  0  0  0  0  0  0  0  0  0  0
    7.1178    3.4931    4.9275 H   0  0  0  0  0  0  0  0  0  0  0  0
    7.0165    1.9832    5.8568 H   0  0  0  0  0  0  0  0  0  0  0  0
    4.1279    2.1786    5.1021 N   0  0  0  0  0  0  0  0  0  0  0  0
    4.8844    4.1110    5.5484 H   0  0  0  0  0  0  0  0  0  0  0  0
    5.0961    2.9185    6.8409 H   0  0  0  0  0  0  0  0  0  0  0  0
    5.1915    0.3650    4.9363 H   0  0  0  0  0  0  0  0  0  0  0  0
    4.4299    0.8844    3.3957 H   0  0  0  0  0  0  0  0  0  0  0  0
    3.1899    1.5352    6.0408 C   0  0  0  0  0  0  0  0  0  0  0  0
    2.2676    0.5087    5.3856 C   0  0  0  0  0  0  0  0  0  0  0  0
    2.5878    2.3318    6.4817 H   0  0  0  0  0  0  0  0  0  0  0  0
    3.7759    1.0479    6.8268 H   0  0  0  0  0  0  0  0  0  0  0  0
    1.3810    1.0785    4.2783 C   0  0  0  0  0  0  0  0  0  0  0  0
    1.6261    0.1115    6.1756 H   0  0  0  0  0  0  0  0  0  0  0  0
    2.8489   -0.3286    4.9939 H   0  0  0  0  0  0  0  0  0  0  0  0
    0.3614    0.0480    3.8082 C   0  0  0  0  0  0  0  0  0  0  0  0
    1.9900    1.3890    3.4280 H   0  0  0  0  0  0  0  0  0  0  0  0
    0.8640    1.9674    4.6401 H   0  0  0  0  0  0  0  0  0  0  0  0
   -0.2556    0.4670    3.0189 H   0  0  0  0  0  0  0  0  0  0  0  0
   -0.2879   -0.2517    4.6274 H   0  0  0  0  0  0  0  0  0  0  0  0
    0.8591   -0.8398    3.4228 H   0  0  0  0  0  0  0  0  0  0  0  0
    3.5419    2.7808    4.4843 H   0  0  0  0  0  0  0  0  0  0  0  0
  1  3  1  0  0  0  0
  1  4  1  0  0  0  0
  1  5  1  0  0  0  0
  2  6  1  0  0  0  0
  2  7  1  0  0  0  0
  2  8  1  0  0  0  0
  1  9  1  0  0  0  0
  2 10  1  0  0  0  0
  9 11  1  0  0  0  0
 10 11  1  0  0  0  0
  9 12  2  0  0  0  0
  9 13  2  0  0  0  0
 10 14  2  0  0  0  0
 10 15  2  0  0  0  0
 16 18  1  0  0  0  0
 16 19  1  0  0  0  0
 16 20  1  0  0  0  0
 17 21  1  0  0  0  0
 17 22  1  0  0  0  0
 17 23  1  0  0  0  0
 16 24  1  0  0  0  0
 17 25  1  0  0  0  0
 24 26  1  0  0  0  0
 25 26  1  0  0  0  0
 24 27  2  0  0  0  0
 24 28  2  0  0  0  0
 25 29  2  0  0  0  0
 25 30  2  0  0  0  0
 31 32  2  0  0  0  0
 31 33  1  0  0  0  0
 31 34  1  0  0  0  0
 32 35  1  0  0  0  0
 32 36  1  0  0  0  0
 35 37  4  0  0  0  0
 37 38  4  0  0  0  0
 38 39  4  0  0  0  0
 35 40  4  0  0  0  0
 39 41  4  0  0  0  0
 40 41  4  0  0  0  0
 40 42  1  0  0  0  0
 41 43  1  0  0  0  0
 38 44  1  0  0  0  0
 37 45  1  0  0  0  0
 39 46  1  0  0  0  0
 46 47  1  0  0  0  0
 46 48  1  0  0  0  0
 46 49  1  0  0  0  0
 47 50  1  0  0  0  0
 47 51  1  0  0  0  0
 51 52  1  0  0  0  0
 51 53  1  0  0  0  0
 51 54  1  0  0  0  0
 50 55  1  0  0  0  0
 52 55  1  0  0  0  0
 52 56  1  0  0  0  0
 52 57  1  0  0  0  0
 50 58  1  0  0  0  0
 50 59  1  0  0  0  0
 55 60  1  0  0  0  0
 60 61  1  0  0  0  0
 60 62  1  0  0  0  0
 60 63  1  0  0  0  0
 61 64  1  0  0  0  0
 61 65  1  0  0  0  0
 61 66  1  0  0  0  0
 64 67  1  0  0  0  0
 64 68  1  0  0  0  0
 64 69  1  0  0  0  0
 67 70  1  0  0  0  0
 67 71  1  0  0  0  0
 67 72  1  0  0  0  0
 55 73  1  0  0  0  0
 74 75  2  0  0  0  0
 74 76  1  0  0  0  0
 74 77  1  0  0  0  0
 75 78  1  0  0  0  0
 75 79  1  0  0  0  0
 78 80  4  0  0  0  0
 80 81  4  0  0  0  0
 81 82  4  0  0  0  0
 78 83  4  0  0  0  0
 82 84  4  0  0  0  0
 83 84  4  0  0  0  0
 83 85  1  0  0  0  0
 84 86  1  0  0  0  0
 81 87  1  0  0  0  0
 80 88  1  0  0  0  0
 82 89  1  0  0  0  0
 89 90  1  0  0  0  0
 89 91  1  0  0  0  0
 89 92  1  0  0  0  0
 90 93  1  0  0  0  0
 90 94  1  0  0  0  0
 94 95  1  0  0  0  0
 94 96  1  0  0  0  0
 94 97  1  0  0  0  0
 93 98  1  0  0  0  0
 95 98  1  0  0  0  0
 95 99  1  0  0  0  0
 95100  1  0  0  0  0
 93101  1  0  0  0  0
 93102  1  0  0  0  0
 98103  1  0  0  0  0
103104  1  0  0  0  0
103105  1  0  0  0  0
103106  1  0  0  0  0
104107  1  0  0  0  0
104108  1  0  0  0  0
104109  1  0  0  0  0
107110  1  0  0  0  0
107111  1  0  0  0  0
107112  1  0  0  0  0
110113  1  0  0  0  0
110114  1  0  0  0  0
110115  1  0  0  0  0
 98116  1  0  0  0  0
M  END
