 xtb: 6.7.1 (edcfbbe)
          10212513313D

116116  0     0  0            999 V2000
    0.9166    7.1974    4.6317 C   0  0  0  0  0  0  0  0  0  0  0  0
    2.4629    8.5894    8.9783 C   0  0  0  0  0  0  0  0  0  0  0  0
    0.9142    7.0042    3.3130 F   0  0  0  0  0  0  0  0  0  0  0  0
   -0.0329    6.4175    5.1587 F   0  0  0  0  0  0  0  0  0  0  0  0
    0.5877    8.4559    4.8765 F   0  0  0  0  0  0  0  0  0  0  0  0
    2.6845    7.4693    9.6761 F   0  0  0  0  0  0  0  0  0  0  0  0
    3.0126    9.5973    9.6506 F   0  0  0  0  0  0  0  0  0  0  0  0
    1.1479    8.7813    8.9440 F   0  0  0  0  0  0  0  0  0  0  0  0
    2.5600    6.6760    5.3748 S   0  0  0  0  0  0  0  0  0  0  0  0
    3.1459    8.4176    7.2370 S   0  0  0  0  0  0  0  0  0  0  0  0
    2.4468    7.0212    6.8963 N   0  0  0  0  0  0  0  0  0  0  0  0
    2.5528    5.2542    5.1658 O   0  0  0  0  0  0  0  0  0  0  0  0
    3.5967    7.3909    4.6833 O   0  0  0  0  0  0  0  0  0  0  0  0
    4.5628    8.2870    7.3773 O   0  0  0  0  0  0  0  0  0  0  0  0
    2.6400    9.5237    6.5005 O   0  0  0  0  0  0  0  0  0  0  0  0
   10.0496    4.1822    5.5737 C   0  0  0  0  0  0  0  0  0  0  0  0
    7.6833   -0.0081    5.8389 C   0  0  0  0  0  0  0  0  0  0  0  0
   10.9332    3.2232    5.3197 F   0  0  0  0  0  0  0  0  0  0  0  0
    9.3665    4.4251    4.4481 F   0  0  0  0  0  0  0  0  0  0  0  0
   10.7226    5.3032    5.8524 F   0  0  0  0  0  0  0  0  0  0  0  0
    7.7807   -0.5821    7.0379 F   0  0  0  0  0  0  0  0  0  0  0  0
    6.6408   -0.5743    5.2164 F   0  0  0  0  0  0  0  0  0  0  0  0
    8.7781   -0.2950    5.1476 F   0  0  0  0  0  0  0  0  0  0  0  0
    8.8866    3.7381    7.0016 S   0  0  0  0  0  0  0  0  0  0  0  0
    7.4083    1.8382    6.0214 S   0  0  0  0  0  0  0  0  0  0  0  0
    8.6848    2.1851    6.8793 N   0  0  0  0  0  0  0  0  0  0  0  0
    9.5937    4.1483    8.1658 O   0  0  0  0  0  0  0  0  0  0  0  0
    7.6820    4.4598    6.6653 O   0  0  0  0  0  0  0  0  0  0  0  0
    6.1604    1.9073    6.7366 O   0  0  0  0  0  0  0  0  0  0  0  0
    7.3951    2.3835    4.7002 O   0  0  0  0  0  0  0  0  0  0  0  0
    0.7758   10.4187    2.6479 C   0  0  0  0  0  0  0  0  0  0  0  0
    1.6417    9.6596    1.9885 C   0  0  0  0  0  0  0  0  0  0  0  0
   -0.2604   10.4675    2.3602 H   0  0  0  0  0  0  0  0  0  0  0  0
    1.0618   11.0119    3.4987 H   0  0  0  0  0  0  0  0  0  0  0  0
    3.0644    9.5400    2.2845 C   0  0  0  0  0  0  0  0  0  0  0  0
    1.3069    9.0898    1.1301 H   0  0  0  0  0  0  0  0  0  0  0  0
    3.9141    9.0182    1.3079 C   0  0  0  0  0  0  0  0  0  0  0  0
    5.2763    8.9452    1.5183 C   0  0  0  0  0  0  0  0  0  0  0  0
    5.8341    9.3678    2.7221 C   0  0  0  0  0  0  0  0  0  0  0  0
    3.6238    9.9451    3.4964 C   0  0  0  0  0  0  0  0  0  0  0  0
    4.9850    9.8532    3.7110 C   0  0  0  0  0  0  0  0  0  0  0  0
    2.9965   10.3110    4.2920 H   0  0  0  0  0  0  0  0  0  0  0  0
    5.3863   10.1725    4.6614 H   0  0  0  0  0  0  0  0  0  0  0  0
    5.9179    8.5793    0.7267 H   0  0  0  0  0  0  0  0  0  0  0  0
    3.5011    8.6889    0.3646 H   0  0  0  0  0  0  0  0  0  0  0  0
    7.3276    9.3035    2.9246 C   0  0  0  0  0  0  0  0  0  0  0  0
    7.8410    8.0974    3.5741 N   0  0  0  0  0  0  0  0  0  0  0  0
    7.6653   10.1541    3.5175 H   0  0  0  0  0  0  0  0  0  0  0  0
    7.8245    9.3598    1.9500 H   0  0  0  0  0  0  0  0  0  0  0  0
    7.2965    6.8674    3.1207 C   0  0  0  0  0  0  0  0  0  0  0  0
    7.7786    8.0205    5.0246 C   0  0  0  0  0  0  0  0  0  0  0  0
    6.6371    7.0355    5.3687 C   0  0  0  0  0  0  0  0  0  0  0  0
    7.6150    9.0041    5.4602 H   0  0  0  0  0  0  0  0  0  0  0  0
    8.7337    7.6336    5.3922 H   0  0  0  0  0  0  0  0  0  0  0  0
    6.1562    6.5405    4.0542 N   0  0  0  0  0  0  0  0  0  0  0  0
    5.8240    7.5177    5.9096 H   0  0  0  0  0  0  0  0  0  0  0  0
    7.0105    6.1923    5.9499 H   0  0  0  0  0  0  0  0  0  0  0  0
    8.0271    6.0607    3.2432 H   0  0  0  0  0  0  0  0  0  0  0  0
    6.9601    6.9271    2.0871 H   0  0  0  0  0  0  0  0  0  0  0  0
    5.7583    5.1184    4.0518 C   0  0  0  0  0  0  0  0  0  0  0  0
    5.3463    4.6213    2.6699 C   0  0  0  0  0  0  0  0  0  0  0  0
    4.9077    5.0194    4.7271 H   0  0  0  0  0  0  0  0  0  0  0  0
    6.5870    4.5176    4.4335 H   0  0  0  0  0  0  0  0  0  0  0  0
    4.0822    5.2991    2.1399 C   0  0  0  0  0  0  0  0  0  0  0  0
    5.1654    3.5504    2.7681 H   0  0  0  0  0  0  0  0  0  0  0  0
    6.1659    4.7393    1.9600 H   0  0  0  0  0  0  0  0  0  0  0  0
    3.6615    4.7170    0.7953 C   0  0  0  0  0  0  0  0  0  0  0  0
    4.2408    6.3739    2.0252 H   0  0  0  0  0  0  0  0  0  0  0  0
    3.2784    5.1654    2.8641 H   0  0  0  0  0  0  0  0  0  0  0  0
    4.4362    4.8750    0.0482 H   0  0  0  0  0  0  0  0  0  0  0  0
    2.7468    5.1903    0.4497 H   0  0  0  0  0  0  0  0  0  0  0  0
    3.4835    3.6485    0.8824 H   0  0  0  0  0  0  0  0  0  0  0  0
    5.3144    7.0930    3.8193 H   0  0  0  0  0  0  0  0  0  0  0  0
    7.0850    0.1364   12.0515 C   0  0  0  0  0  0  0  0  0  0  0  0
    5.7751    0.3524   12.0700 C   0  0  0  0  0  0  0  0  0  0  0  0
    7.6563    0.1002   12.9631 H   0  0  0  0  0  0  0  0  0  0  0  0
    7.6402   -0.0047   11.1401 H   0  0  0  0  0  0  0  0  0  0  0  0
    4.8993    0.4283   10.9069 C   0  0  0  0  0  0  0  0  0  0  0  0
    5.2777    0.5044   13.0205 H   0  0  0  0  0  0  0  0  0  0  0  0
    3.5784    0.8498   11.0787 C   0  0  0  0  0  0  0  0  0  0  0  0
    2.7101    0.9357   10.0075 C   0  0  0  0  0  0  0  0  0  0  0  0
    3.1347    0.6032    8.7233 C   0  0  0  0  0  0  0  0  0  0  0  0
    5.3144    0.0801    9.6203 C   0  0  0  0  0  0  0  0  0  0  0  0
    4.4458    0.1650    8.5509 C   0  0  0  0  0  0  0  0  0  0  0  0
    6.3170   -0.2746    9.4483 H   0  0  0  0  0  0  0  0  0  0  0  0
    4.7878   -0.1206    7.5684 H   0  0  0  0  0  0  0  0  0  0  0  0
    1.6860    1.2396   10.1750 H   0  0  0  0  0  0  0  0  0  0  0  0
    3.2282    1.1038   12.0693 H   0  0  0  0  0  0  0  0  0  0  0  0
    2.2084    0.7051    7.5361 C   0  0  0  0  0  0  0  0  0  0  0  0
    2.0807    2.0309    6.9353 N   0  0  0  0  0  0  0  0  0  0  0  0
    1.2011    0.3853    7.8120 H   0  0  0  0  0  0  0  0  0  0  0  0
    2.5668    0.0420    6.7451 H   0  0  0  0  0  0  0  0  0  0  0  0
    3.2906    2.6968    6.6061 C   0  0  0  0  0  0  0  0  0  0  0  0
    1.3348    3.0299    7.6751 C   0  0  0  0  0  0  0  0  0  0  0  0
    2.3877    3.8875    8.4252 C   0  0  0  0  0  0  0  0  0  0  0  0
    0.6104    2.5670    8.3425 H   0  0  0  0  0  0  0  0  0  0  0  0
    0.8043    3.6575    6.9550 H   0  0  0  0  0  0  0  0  0  0  0  0
    3.6851    3.4274    7.8827 N   0  0  0  0  0  0  0  0  0  0  0  0
    2.3524    3.7461    9.5044 H   0  0  0  0  0  0  0  0  0  0  0  0
    2.2630    4.9444    8.1841 H   0  0  0  0  0  0  0  0  0  0  0  0
    3.0917    3.4650    5.8544 H   0  0  0  0  0  0  0  0  0  0  0  0
    4.1002    2.0370    6.2993 H   0  0  0  0  0  0  0  0  0  0  0  0
    4.6994    4.4849    7.7383 C   0  0  0  0  0  0  0  0  0  0  0  0
    5.0978    5.0838    9.0865 C   0  0  0  0  0  0  0  0  0  0  0  0
    4.2793    5.2709    7.1065 H   0  0  0  0  0  0  0  0  0  0  0  0
    5.5728    4.0477    7.2515 H   0  0  0  0  0  0  0  0  0  0  0  0
    5.5270    4.0651   10.1463 C   0  0  0  0  0  0  0  0  0  0  0  0
    4.2765    5.6836    9.4794 H   0  0  0  0  0  0  0  0  0  0  0  0
    5.9312    5.7577    8.8893 H   0  0  0  0  0  0  0  0  0  0  0  0
    6.7429    3.2389    9.7423 C   0  0  0  0  0  0  0  0  0  0  0  0
    4.6979    3.3973   10.4027 H   0  0  0  0  0  0  0  0  0  0  0  0
    5.7685    4.6208   11.0544 H   0  0  0  0  0  0  0  0  0  0  0  0
    7.0355    2.5880   10.5623 H   0  0  0  0  0  0  0  0  0  0  0  0
    7.5828    3.8843    9.5022 H   0  0  0  0  0  0  0  0  0  0  0  0
    6.5438    2.6201    8.8717 H   0  0  0  0  0  0  0  0  0  0  0  0
    4.0890    2.7039    8.4922 H   0  0  0  0  0  0  0  0  0  0  0  0
  1  3  1  0  0  0  0
  1  4  1  0  0  0  0
  1  5  1  0  0  0  0
  2  6  1  0  0  0  0
  2  7  1  0  0  0  0
  2  8  1  0  0  0  0
  1  9  1  0  0  0  0
  2 10  1  0  0  0  0
  9 11  1  0  0  0  0
 10 11  1  0  0  0  0
  9 12  2  0  0  0  0
  9 13  2  0  0  0  0
 10 14  2  0  0  0  0
 10 15  2  0  0  0  0
 16 18  1  0  0  0  0
 16 19  1  0  0  0  0
 16 20  1  0  0  0  0
 17 21  1  0  0  0  0
 17 22  1  0  0  0  0
 17 23  1  0  0  0  0
 16 24  1  0  0  0  0
 17 25  1  0  0  0  0
 24 26  1  0  0  0  0
 25 26  1  0  0  0  0
 24 27  2  0  0  0  0
 24 28  2  0  0  0  0
 25 29  2  0  0  0  0
 25 30  2  0  0  0  0
 31 32  2  0  0  0  0
 31 33  1  0  0  0  0
 31 34  1  0  0  0  0
 32 35  1  0  0  0  0
 32 36  1  0  0  0  0
 35 37  4  0  0  0  0
 37 38  4  0  0  0  0
 38 39  4  0  0  0  0
 35 40  4  0  0  0  0
 39 41  4  0  0  0  0
 40 41  4  0  0  0  0
 40 42  1  0  0  0  0
 41 43  1  0  0  0  0
 38 44  1  0  0  0  0
 37 45  1  0  0  0  0
 39 46  1  0  0  0  0
 46 47  1  0  0  0  0
 46 48  1  0  0  0  0
 46 49  1  0  0  0  0
 47 50  1  0  0  0  0
 47 51  1  0  0  0  0
 51 52  1  0  0  0  0
 51 53  1  0  0  0  0
 51 54  1  0  0  0  0
 50 55  1  0  0  0  0
 52 55  1  0  0  0  0
 52 56  1  0  0  0  0
 52 57  1  0  0  0  0
 50 58  1  0  0  0  0
 50 59  1  0  0  0  0
 55 60  1  0  0  0  0
 60 61  1  0  0  0  0
 60 62  1  0  0  0  0
 60 63  1  0  0  0  0
 61 64  1  0  0  0  0
 61 65  1  0  0  0  0
 61 66  1  0  0  0  0
 64 67  1  0  0  0  0
 64 68  1  0  0  0  0
 64 69  1  0  0  0  0
 67 70  1  0  0  0  0
 67 71  1  0  0  0  0
 67 72  1  0  0  0  0
 55 73  1  0  0  0  0
 74 75  2  0  0  0  0
 74 76  1  0  0  0  0
 74 77  1  0  0  0  0
 75 78  1  0  0  0  0
 75 79  1  0  0  0  0
 78 80  4  0  0  0  0
 80 81  4  0  0  0  0
 81 82  4  0  0  0  0
 78 83  4  0  0  0  0
 82 84  4  0  0  0  0
 83 84  4  0  0  0  0
 83 85  1  0  0  0  0
 84 86  1  0  0  0  0
 81 87  1  0  0  0  0
 80 88  1  0  0  0  0
 82 89  1  0  0  0  0
 89 90  1  0  0  0  0
 89 91  1  0  0  0  0
 89 92  1  0  0  0  0
 90 93  1  0  0  0  0
 90 94  1  0  0  0  0
 94 95  1  0  0  0  0
 94 96  1  0  0  0  0
 94 97  1  0  0  0  0
 93 98  1  0  0  0  0
 95 98  1  0  0  0  0
 95 99  1  0  0  0  0
 95100  1  0  0  0  0
 93101  1  0  0  0  0
 93102  1  0  0  0  0
 98103  1  0  0  0  0
103104  1  0  0  0  0
103105  1  0  0  0  0
103106  1  0  0  0  0
104107  1  0  0  0  0
104108  1  0  0  0  0
104109  1  0  0  0  0
107110  1  0  0  0  0
107111  1  0  0  0  0
107112  1  0  0  0  0
110113  1  0  0  0  0
110114  1  0  0  0  0
110115  1  0  0  0  0
 98116  1  0  0  0  0
M  END
