 xtb: 6.7.1 (edcfbbe)
          10212513463D

116116  0     0  0            999 V2000
    5.6483    8.5494    6.4319 C   0  0  0  0  0  0  0  0  0  0  0  0
    5.9598    4.2189    6.9261 C   0  0  0  0  0  0  0  0  0  0  0  0
    5.8056    9.2127    5.2910 F   0  0  0  0  0  0  0  0  0  0  0  0
    5.2821    9.4195    7.3728 F   0  0  0  0  0  0  0  0  0  0  0  0
    6.8563    8.0805    6.7873 F   0  0  0  0  0  0  0  0  0  0  0  0
    6.9737    5.1034    6.9267 F   0  0  0  0  0  0  0  0  0  0  0  0
    6.4043    3.1666    7.6270 F   0  0  0  0  0  0  0  0  0  0  0  0
    5.7479    3.8025    5.6954 F   0  0  0  0  0  0  0  0  0  0  0  0
    4.4328    7.1103    6.3121 S   0  0  0  0  0  0  0  0  0  0  0  0
    4.4822    4.9782    7.8365 S   0  0  0  0  0  0  0  0  0  0  0  0
    4.7013    6.5289    7.7750 N   0  0  0  0  0  0  0  0  0  0  0  0
    3.1612    7.7044    6.1104 O   0  0  0  0  0  0  0  0  0  0  0  0
    4.9931    6.2450    5.3243 O   0  0  0  0  0  0  0  0  0  0  0  0
    4.7811    4.5701    9.2020 O   0  0  0  0  0  0  0  0  0  0  0  0
    3.3029    4.4592    7.2520 O   0  0  0  0  0  0  0  0  0  0  0  0
    6.0273    1.4059    0.1579 C   0  0  0  0  0  0  0  0  0  0  0  0
   10.5397    2.0531   -0.1729 C   0  0  0  0  0  0  0  0  0  0  0  0
    6.0738    0.2263    0.7670 F   0  0  0  0  0  0  0  0  0  0  0  0
    4.8412    1.9532    0.4499 F   0  0  0  0  0  0  0  0  0  0  0  0
    6.0655    1.2404   -1.1505 F   0  0  0  0  0  0  0  0  0  0  0  0
   11.7770    1.5494   -0.1395 F   0  0  0  0  0  0  0  0  0  0  0  0
   10.2788    2.3855   -1.4256 F   0  0  0  0  0  0  0  0  0  0  0  0
   10.5781    3.1829    0.5601 F   0  0  0  0  0  0  0  0  0  0  0  0
    7.3661    2.5528    0.8264 S   0  0  0  0  0  0  0  0  0  0  0  0
    9.2956    0.8156    0.5680 S   0  0  0  0  0  0  0  0  0  0  0  0
    8.4544    1.7073    1.5805 N   0  0  0  0  0  0  0  0  0  0  0  0
    7.8989    3.3113   -0.2641 O   0  0  0  0  0  0  0  0  0  0  0  0
    6.6665    3.3497    1.8185 O   0  0  0  0  0  0  0  0  0  0  0  0
   10.1100   -0.1213    1.2652 O   0  0  0  0  0  0  0  0  0  0  0  0
    8.4911    0.3830   -0.5262 O   0  0  0  0  0  0  0  0  0  0  0  0
    2.3211   10.5147    4.2585 C   0  0  0  0  0  0  0  0  0  0  0  0
    3.0221   10.6300    3.1371 C   0  0  0  0  0  0  0  0  0  0  0  0
    1.7024   11.3207    4.6165 H   0  0  0  0  0  0  0  0  0  0  0  0
    2.3490    9.6260    4.8672 H   0  0  0  0  0  0  0  0  0  0  0  0
    3.8983    9.6013    2.5870 C   0  0  0  0  0  0  0  0  0  0  0  0
    2.9951   11.5585    2.5782 H   0  0  0  0  0  0  0  0  0  0  0  0
    3.7575    8.2539    2.9177 C   0  0  0  0  0  0  0  0  0  0  0  0
    4.6397    7.3124    2.4261 C   0  0  0  0  0  0  0  0  0  0  0  0
    5.6871    7.6872    1.5922 C   0  0  0  0  0  0  0  0  0  0  0  0
    4.9191    9.9631    1.7063 C   0  0  0  0  0  0  0  0  0  0  0  0
    5.8065    9.0225    1.2229 C   0  0  0  0  0  0  0  0  0  0  0  0
    5.0268   10.9990    1.4169 H   0  0  0  0  0  0  0  0  0  0  0  0
    6.6078    9.3186    0.5623 H   0  0  0  0  0  0  0  0  0  0  0  0
    4.5211    6.2769    2.7070 H   0  0  0  0  0  0  0  0  0  0  0  0
    2.9592    7.9387    3.5695 H   0  0  0  0  0  0  0  0  0  0  0  0
    6.7026    6.6719    1.1535 C   0  0  0  0  0  0  0  0  0  0  0  0
    8.0030    6.9006    1.8132 N   0  0  0  0  0  0  0  0  0  0  0  0
    6.8915    6.7583    0.0793 H   0  0  0  0  0  0  0  0  0  0  0  0
    6.3200    5.6648    1.3545 H   0  0  0  0  0  0  0  0  0  0  0  0
    8.8408    5.7550    1.8081 C   0  0  0  0  0  0  0  0  0  0  0  0
    7.9428    7.2516    3.2180 C   0  0  0  0  0  0  0  0  0  0  0  0
    7.8190    5.9060    3.9606 C   0  0  0  0  0  0  0  0  0  0  0  0
    7.1130    7.9205    3.4276 H   0  0  0  0  0  0  0  0  0  0  0  0
    8.8789    7.7537    3.4799 H   0  0  0  0  0  0  0  0  0  0  0  0
    8.4292    4.9282    3.0262 N   0  0  0  0  0  0  0  0  0  0  0  0
    6.7719    5.6685    4.1403 H   0  0  0  0  0  0  0  0  0  0  0  0
    8.3529    5.9156    4.9090 H   0  0  0  0  0  0  0  0  0  0  0  0
    9.8840    6.0511    1.9596 H   0  0  0  0  0  0  0  0  0  0  0  0
    8.7452    5.1577    0.9008 H   0  0  0  0  0  0  0  0  0  0  0  0
    9.5165    4.1147    3.5917 C   0  0  0  0  0  0  0  0  0  0  0  0
    8.9677    3.0160    4.4957 C   0  0  0  0  0  0  0  0  0  0  0  0
   10.2000    4.7740    4.1370 H   0  0  0  0  0  0  0  0  0  0  0  0
   10.0479    3.6486    2.7640 H   0  0  0  0  0  0  0  0  0  0  0  0
   10.0789    2.2207    5.1830 C   0  0  0  0  0  0  0  0  0  0  0  0
    8.3751    2.3399    3.8776 H   0  0  0  0  0  0  0  0  0  0  0  0
    8.3228    3.4557    5.2569 H   0  0  0  0  0  0  0  0  0  0  0  0
   11.0003    1.5105    4.1970 C   0  0  0  0  0  0  0  0  0  0  0  0
    9.6074    1.4769    5.8271 H   0  0  0  0  0  0  0  0  0  0  0  0
   10.6655    2.8858    5.8242 H   0  0  0  0  0  0  0  0  0  0  0  0
   11.6349    0.8026    4.7241 H   0  0  0  0  0  0  0  0  0  0  0  0
   11.6465    2.2170    3.6824 H   0  0  0  0  0  0  0  0  0  0  0  0
   10.4246    0.9680    3.4509 H   0  0  0  0  0  0  0  0  0  0  0  0
    7.6899    4.2652    2.6844 H   0  0  0  0  0  0  0  0  0  0  0  0
   10.1615   -0.5715   10.6562 C   0  0  0  0  0  0  0  0  0  0  0  0
    9.0590    0.0320   10.2306 C   0  0  0  0  0  0  0  0  0  0  0  0
   10.7261   -1.2239   10.0148 H   0  0  0  0  0  0  0  0  0  0  0  0
   10.5533   -0.4416   11.6514 H   0  0  0  0  0  0  0  0  0  0  0  0
    8.2150    0.9427   10.9949 C   0  0  0  0  0  0  0  0  0  0  0  0
    8.7271   -0.1384    9.2151 H   0  0  0  0  0  0  0  0  0  0  0  0
    8.4293    1.2336   12.3424 C   0  0  0  0  0  0  0  0  0  0  0  0
    7.6071    2.1168   13.0133 C   0  0  0  0  0  0  0  0  0  0  0  0
    6.5458    2.7429   12.3661 C   0  0  0  0  0  0  0  0  0  0  0  0
    7.1356    1.5585   10.3572 C   0  0  0  0  0  0  0  0  0  0  0  0
    6.3147    2.4453   11.0275 C   0  0  0  0  0  0  0  0  0  0  0  0
    6.9374    1.3415    9.3189 H   0  0  0  0  0  0  0  0  0  0  0  0
    5.4922    2.9073   10.5022 H   0  0  0  0  0  0  0  0  0  0  0  0
    7.7847    2.3163   14.0614 H   0  0  0  0  0  0  0  0  0  0  0  0
    9.2395    0.7610   12.8748 H   0  0  0  0  0  0  0  0  0  0  0  0
    5.6838    3.7310   13.1098 C   0  0  0  0  0  0  0  0  0  0  0  0
    6.0561    5.1436   12.9611 N   0  0  0  0  0  0  0  0  0  0  0  0
    5.7408    3.5149   14.1823 H   0  0  0  0  0  0  0  0  0  0  0  0
    4.6437    3.6268   12.7987 H   0  0  0  0  0  0  0  0  0  0  0  0
    5.3673    5.9438   12.0112 C   0  0  0  0  0  0  0  0  0  0  0  0
    7.4543    5.4289   12.7299 C   0  0  0  0  0  0  0  0  0  0  0  0
    7.5748    5.5309   11.1961 C   0  0  0  0  0  0  0  0  0  0  0  0
    8.0906    4.6528   13.1471 H   0  0  0  0  0  0  0  0  0  0  0  0
    7.6991    6.3856   13.2019 H   0  0  0  0  0  0  0  0  0  0  0  0
    6.2591    6.0681   10.7787 N   0  0  0  0  0  0  0  0  0  0  0  0
    7.7166    4.5393   10.7655 H   0  0  0  0  0  0  0  0  0  0  0  0
    8.3811    6.1845   10.8734 H   0  0  0  0  0  0  0  0  0  0  0  0
    5.2299    6.9523   12.4117 H   0  0  0  0  0  0  0  0  0  0  0  0
    4.4031    5.5251   11.7222 H   0  0  0  0  0  0  0  0  0  0  0  0
    6.3082    7.4166   10.1705 C   0  0  0  0  0  0  0  0  0  0  0  0
    6.8289    8.5240   11.0837 C   0  0  0  0  0  0  0  0  0  0  0  0
    5.3067    7.6539    9.8092 H   0  0  0  0  0  0  0  0  0  0  0  0
    6.9462    7.3426    9.2876 H   0  0  0  0  0  0  0  0  0  0  0  0
    7.1490    9.7783   10.2681 C   0  0  0  0  0  0  0  0  0  0  0  0
    7.7357    8.2057   11.6001 H   0  0  0  0  0  0  0  0  0  0  0  0
    6.0877    8.7873   11.8392 H   0  0  0  0  0  0  0  0  0  0  0  0
    7.6144   10.9154   11.1689 C   0  0  0  0  0  0  0  0  0  0  0  0
    6.2614   10.0863    9.7155 H   0  0  0  0  0  0  0  0  0  0  0  0
    7.9279    9.5465    9.5398 H   0  0  0  0  0  0  0  0  0  0  0  0
    8.5035   10.6270   11.7274 H   0  0  0  0  0  0  0  0  0  0  0  0
    6.8351   11.1842   11.8793 H   0  0  0  0  0  0  0  0  0  0  0  0
    7.8529   11.7945   10.5763 H   0  0  0  0  0  0  0  0  0  0  0  0
    5.8011    5.4463   10.0595 H   0  0  0  0  0  0  0  0  0  0  0  0
  1  3  1  0  0  0  0
  1  4  1  0  0  0  0
  1  5  1  0  0  0  0
  2  6  1  0  0  0  0
  2  7  1  0  0  0  0
  2  8  1  0  0  0  0
  1  9  1  0  0  0  0
  2 10  1  0  0  0  0
  9 11  1  0  0  0  0
 10 11  1  0  0  0  0
  9 12  2  0  0  0  0
  9 13  2  0  0  0  0
 10 14  2  0  0  0  0
 10 15  2  0  0  0  0
 16 18  1  0  0  0  0
 16 19  1  0  0  0  0
 16 20  1  0  0  0  0
 17 21  1  0  0  0  0
 17 22  1  0  0  0  0
 17 23  1  0  0  0  0
 16 24  1  0  0  0  0
 17 25  1  0  0  0  0
 24 26  1  0  0  0  0
 25 26  1  0  0  0  0
 24 27  2  0  0  0  0
 24 28  2  0  0  0  0
 25 29  2  0  0  0  0
 25 30  2  0  0  0  0
 31 32  2  0  0  0  0
 31 33  1  0  0  0  0
 31 34  1  0  0  0  0
 32 35  1  0  0  0  0
 32 36  1  0  0  0  0
 35 37  4  0  0  0  0
 37 38  4  0  0  0  0
 38 39  4  0  0  0  0
 35 40  4  0  0  0  0
 39 41  4  0  0  0  0
 40 41  4  0  0  0  0
 40 42  1  0  0  0  0
 41 43  1  0  0  0  0
 38 44  1  0  0  0  0
 37 45  1  0  0  0  0
 39 46  1  0  0  0  0
 46 47  1  0  0  0  0
 46 48  1  0  0  0  0
 46 49  1  0  0  0  0
 47 50  1  0  0  0  0
 47 51  1  0  0  0  0
 51 52  1  0  0  0  0
 51 53  1  0  0  0  0
 51 54  1  0  0  0  0
 50 55  1  0  0  0  0
 52 55  1  0  0  0  0
 52 56  1  0  0  0  0
 52 57  1  0  0  0  0
 50 58  1  0  0  0  0
 50 59  1  0  0  0  0
 55 60  1  0  0  0  0
 60 61  1  0  0  0  0
 60 62  1  0  0  0  0
 60 63  1  0  0  0  0
 61 64  1  0  0  0  0
 61 65  1  0  0  0  0
 61 66  1  0  0  0  0
 64 67  1  0  0  0  0
 64 68  1  0  0  0  0
 64 69  1  0  0  0  0
 67 70  1  0  0  0  0
 67 71  1  0  0  0  0
 67 72  1  0  0  0  0
 55 73  1  0  0  0  0
 74 75  2  0  0  0  0
 74 76  1  0  0  0  0
 74 77  1  0  0  0  0
 75 78  1  0  0  0  0
 75 79  1  0  0  0  0
 78 80  4  0  0  0  0
 80 81  4  0  0  0  0
 81 82  4  0  0  0  0
 78 83  4  0  0  0  0
 82 84  4  0  0  0  0
 83 84  4  0  0  0  0
 83 85  1  0  0  0  0
 84 86  1  0  0  0  0
 81 87  1  0  0  0  0
 80 88  1  0  0  0  0
 82 89  1  0  0  0  0
 89 90  1  0  0  0  0
 89 91  1  0  0  0  0
 89 92  1  0  0  0  0
 90 93  1  0  0  0  0
 90 94  1  0  0  0  0
 94 95  1  0  0  0  0
 94 96  1  0  0  0  0
 94 97  1  0  0  0  0
 93 98  1  0  0  0  0
 95 98  1  0  0  0  0
 95 99  1  0  0  0  0
 95100  1  0  0  0  0
 93101  1  0  0  0  0
 93102  1  0  0  0  0
 98103  1  0  0  0  0
103104  1  0  0  0  0
103105  1  0  0  0  0
103106  1  0  0  0  0
104107  1  0  0  0  0
104108  1  0  0  0  0
104109  1  0  0  0  0
107110  1  0  0  0  0
107111  1  0  0  0  0
107112  1  0  0  0  0
110113  1  0  0  0  0
110114  1  0  0  0  0
110115  1  0  0  0  0
 98116  1  0  0  0  0
M  END
