 xtb: 6.7.1 (edcfbbe)
          10212513333D

116116  0     0  0            999 V2000
    1.7872    6.0096    6.8007 C   0  0  0  0  0  0  0  0  0  0  0  0
   -0.3062    1.9987    7.8454 C   0  0  0  0  0  0  0  0  0  0  0  0
    0.6562    6.6239    6.4461 F   0  0  0  0  0  0  0  0  0  0  0  0
    2.6581    6.9486    7.1549 F   0  0  0  0  0  0  0  0  0  0  0  0
    2.2679    5.4322    5.6864 F   0  0  0  0  0  0  0  0  0  0  0  0
   -1.4602    2.5814    7.5568 F   0  0  0  0  0  0  0  0  0  0  0  0
   -0.4692    0.6928    7.5770 F   0  0  0  0  0  0  0  0  0  0  0  0
   -0.0547    2.1027    9.1412 F   0  0  0  0  0  0  0  0  0  0  0  0
    1.4795    4.7606    8.2093 S   0  0  0  0  0  0  0  0  0  0  0  0
    1.1288    2.6201    6.7797 S   0  0  0  0  0  0  0  0  0  0  0  0
    2.1269    3.4182    7.6628 N   0  0  0  0  0  0  0  0  0  0  0  0
    2.1749    5.3036    9.3194 O   0  0  0  0  0  0  0  0  0  0  0  0
    0.0543    4.6408    8.2543 O   0  0  0  0  0  0  0  0  0  0  0  0
    0.4843    3.4259    5.7427 O   0  0  0  0  0  0  0  0  0  0  0  0
    1.7073    1.4282    6.2346 O   0  0  0  0  0  0  0  0  0  0  0  0
    8.5342    2.3676    7.2084 C   0  0  0  0  0  0  0  0  0  0  0  0
    9.0216    7.0581    7.8629 C   0  0  0  0  0  0  0  0  0  0  0  0
    7.9179    1.3086    7.7161 F   0  0  0  0  0  0  0  0  0  0  0  0
    7.8535    2.7329    6.1053 F   0  0  0  0  0  0  0  0  0  0  0  0
    9.7337    1.9515    6.7686 F   0  0  0  0  0  0  0  0  0  0  0  0
    8.5166    8.2869    7.7012 F   0  0  0  0  0  0  0  0  0  0  0  0
    9.0723    6.8116    9.1647 F   0  0  0  0  0  0  0  0  0  0  0  0
   10.2626    7.0964    7.3814 F   0  0  0  0  0  0  0  0  0  0  0  0
    8.7056    3.8024    8.4571 S   0  0  0  0  0  0  0  0  0  0  0  0
    7.9410    5.7926    6.9555 S   0  0  0  0  0  0  0  0  0  0  0  0
    7.5142    4.7448    8.0245 N   0  0  0  0  0  0  0  0  0  0  0  0
    8.5304    3.1822    9.7200 O   0  0  0  0  0  0  0  0  0  0  0  0
    9.9816    4.3740    8.1440 O   0  0  0  0  0  0  0  0  0  0  0  0
    8.8196    5.2670    5.9218 O   0  0  0  0  0  0  0  0  0  0  0  0
    6.8454    6.5378    6.4227 O   0  0  0  0  0  0  0  0  0  0  0  0
   11.4256   11.4120    3.7568 C   0  0  0  0  0  0  0  0  0  0  0  0
   10.3841   11.1868    2.9651 C   0  0  0  0  0  0  0  0  0  0  0  0
   12.0356   12.2914    3.6438 H   0  0  0  0  0  0  0  0  0  0  0  0
   11.7141   10.7370    4.5439 H   0  0  0  0  0  0  0  0  0  0  0  0
    9.4877   10.0384    3.0223 C   0  0  0  0  0  0  0  0  0  0  0  0
   10.1524   11.8998    2.1832 H   0  0  0  0  0  0  0  0  0  0  0  0
    8.5380    9.8655    2.0140 C   0  0  0  0  0  0  0  0  0  0  0  0
    7.6655    8.7946    2.0302 C   0  0  0  0  0  0  0  0  0  0  0  0
    7.7096    7.8567    3.0562 C   0  0  0  0  0  0  0  0  0  0  0  0
    9.5178    9.1020    4.0575 C   0  0  0  0  0  0  0  0  0  0  0  0
    8.6452    8.0323    4.0716 C   0  0  0  0  0  0  0  0  0  0  0  0
   10.2149    9.2171    4.8720 H   0  0  0  0  0  0  0  0  0  0  0  0
    8.6602    7.3407    4.8991 H   0  0  0  0  0  0  0  0  0  0  0  0
    6.9272    8.6964    1.2457 H   0  0  0  0  0  0  0  0  0  0  0  0
    8.4811   10.5867    1.2110 H   0  0  0  0  0  0  0  0  0  0  0  0
    6.7647    6.6829    3.0758 C   0  0  0  0  0  0  0  0  0  0  0  0
    7.2687    5.4503    2.4456 N   0  0  0  0  0  0  0  0  0  0  0  0
    5.8525    6.9536    2.5326 H   0  0  0  0  0  0  0  0  0  0  0  0
    6.5024    6.4625    4.1120 H   0  0  0  0  0  0  0  0  0  0  0  0
    7.7742    4.4259    3.2823 C   0  0  0  0  0  0  0  0  0  0  0  0
    8.3008    5.6055    1.4449 C   0  0  0  0  0  0  0  0  0  0  0  0
    9.6337    5.4684    2.2198 C   0  0  0  0  0  0  0  0  0  0  0  0
    8.2179    6.5578    0.9276 H   0  0  0  0  0  0  0  0  0  0  0  0
    8.2027    4.7948    0.7162 H   0  0  0  0  0  0  0  0  0  0  0  0
    9.2772    4.6752    3.4156 N   0  0  0  0  0  0  0  0  0  0  0  0
   10.0136    6.4470    2.5098 H   0  0  0  0  0  0  0  0  0  0  0  0
   10.3872    4.9474    1.6318 H   0  0  0  0  0  0  0  0  0  0  0  0
    7.6624    3.4542    2.7872 H   0  0  0  0  0  0  0  0  0  0  0  0
    7.3132    4.3952    4.2686 H   0  0  0  0  0  0  0  0  0  0  0  0
   10.0552    3.4384    3.6007 C   0  0  0  0  0  0  0  0  0  0  0  0
   11.5402    3.6757    3.8689 C   0  0  0  0  0  0  0  0  0  0  0  0
    9.9307    2.8202    2.7051 H   0  0  0  0  0  0  0  0  0  0  0  0
    9.6256    2.9163    4.4536 H   0  0  0  0  0  0  0  0  0  0  0  0
   11.8477    4.4898    5.1336 C   0  0  0  0  0  0  0  0  0  0  0  0
   12.0140    4.1523    3.0073 H   0  0  0  0  0  0  0  0  0  0  0  0
   11.9836    2.6840    3.9717 H   0  0  0  0  0  0  0  0  0  0  0  0
   12.0023    5.9857    4.8779 C   0  0  0  0  0  0  0  0  0  0  0  0
   12.7866    4.1244    5.5504 H   0  0  0  0  0  0  0  0  0  0  0  0
   11.0797    4.3334    5.8910 H   0  0  0  0  0  0  0  0  0  0  0  0
   12.7281    6.1739    4.0873 H   0  0  0  0  0  0  0  0  0  0  0  0
   12.3508    6.4659    5.7867 H   0  0  0  0  0  0  0  0  0  0  0  0
   11.0611    6.4575    4.6111 H   0  0  0  0  0  0  0  0  0  0  0  0
    9.3669    5.1969    4.3147 H   0  0  0  0  0  0  0  0  0  0  0  0
    5.5291    2.3775    9.7639 C   0  0  0  0  0  0  0  0  0  0  0  0
    5.0381    3.2232    8.8673 C   0  0  0  0  0  0  0  0  0  0  0  0
    5.5666    2.6309   10.8084 H   0  0  0  0  0  0  0  0  0  0  0  0
    5.9426    1.4204    9.4960 H   0  0  0  0  0  0  0  0  0  0  0  0
    4.9604    2.9788    7.4334 C   0  0  0  0  0  0  0  0  0  0  0  0
    4.6626    4.1871    9.1803 H   0  0  0  0  0  0  0  0  0  0  0  0
    4.9008    4.0654    6.5615 C   0  0  0  0  0  0  0  0  0  0  0  0
    4.8307    3.8752    5.1968 C   0  0  0  0  0  0  0  0  0  0  0  0
    4.7955    2.5937    4.6535 C   0  0  0  0  0  0  0  0  0  0  0  0
    4.9461    1.6975    6.8853 C   0  0  0  0  0  0  0  0  0  0  0  0
    4.8631    1.5091    5.5203 C   0  0  0  0  0  0  0  0  0  0  0  0
    4.9827    0.8378    7.5350 H   0  0  0  0  0  0  0  0  0  0  0  0
    4.8564    0.5043    5.1209 H   0  0  0  0  0  0  0  0  0  0  0  0
    4.8067    4.7370    4.5425 H   0  0  0  0  0  0  0  0  0  0  0  0
    4.9345    5.0655    6.9625 H   0  0  0  0  0  0  0  0  0  0  0  0
    4.6204    2.3892    3.1701 C   0  0  0  0  0  0  0  0  0  0  0  0
    3.2308    2.2731    2.7211 N   0  0  0  0  0  0  0  0  0  0  0  0
    5.1120    1.4662    2.8522 H   0  0  0  0  0  0  0  0  0  0  0  0
    5.0531    3.2272    2.6151 H   0  0  0  0  0  0  0  0  0  0  0  0
    2.4198    3.4545    2.9675 C   0  0  0  0  0  0  0  0  0  0  0  0
    2.4896    1.1427    3.2668 C   0  0  0  0  0  0  0  0  0  0  0  0
    1.0581    1.5273    2.9362 C   0  0  0  0  0  0  0  0  0  0  0  0
    2.6035    1.0339    4.3519 H   0  0  0  0  0  0  0  0  0  0  0  0
    2.8024    0.2263    2.7649 H   0  0  0  0  0  0  0  0  0  0  0  0
    1.0346    2.9803    3.2207 N   0  0  0  0  0  0  0  0  0  0  0  0
    0.3282    1.0032    3.5495 H   0  0  0  0  0  0  0  0  0  0  0  0
    0.8496    1.3744    1.8740 H   0  0  0  0  0  0  0  0  0  0  0  0
    2.4371    4.0848    2.0703 H   0  0  0  0  0  0  0  0  0  0  0  0
    2.7646    4.0285    3.8347 H   0  0  0  0  0  0  0  0  0  0  0  0
   -0.0349    3.6945    2.4955 C   0  0  0  0  0  0  0  0  0  0  0  0
   -0.3638    5.0659    3.0831 C   0  0  0  0  0  0  0  0  0  0  0  0
   -0.9288    3.0702    2.5643 H   0  0  0  0  0  0  0  0  0  0  0  0
    0.2535    3.7775    1.4424 H   0  0  0  0  0  0  0  0  0  0  0  0
    0.6262    6.1785    2.7375 C   0  0  0  0  0  0  0  0  0  0  0  0
   -0.4462    4.9728    4.1666 H   0  0  0  0  0  0  0  0  0  0  0  0
   -1.3453    5.3532    2.7001 H   0  0  0  0  0  0  0  0  0  0  0  0
    0.0533    7.5405    3.1144 C   0  0  0  0  0  0  0  0  0  0  0  0
    0.8421    6.1631    1.6655 H   0  0  0  0  0  0  0  0  0  0  0  0
    1.5600    6.0307    3.2774 H   0  0  0  0  0  0  0  0  0  0  0  0
   -0.8343    7.7613    2.5257 H   0  0  0  0  0  0  0  0  0  0  0  0
    0.7851    8.3241    2.9389 H   0  0  0  0  0  0  0  0  0  0  0  0
   -0.2187    7.5537    4.1654 H   0  0  0  0  0  0  0  0  0  0  0  0
    0.8333    3.1178    4.2602 H   0  0  0  0  0  0  0  0  0  0  0  0
  1  3  1  0  0  0  0
  1  4  1  0  0  0  0
  1  5  1  0  0  0  0
  2  6  1  0  0  0  0
  2  7  1  0  0  0  0
  2  8  1  0  0  0  0
  1  9  1  0  0  0  0
  2 10  1  0  0  0  0
  9 11  1  0  0  0  0
 10 11  1  0  0  0  0
  9 12  2  0  0  0  0
  9 13  2  0  0  0  0
 10 14  2  0  0  0  0
 10 15  2  0  0  0  0
 16 18  1  0  0  0  0
 16 19  1  0  0  0  0
 16 20  1  0  0  0  0
 17 21  1  0  0  0  0
 17 22  1  0  0  0  0
 17 23  1  0  0  0  0
 16 24  1  0  0  0  0
 17 25  1  0  0  0  0
 24 26  1  0  0  0  0
 25 26  1  0  0  0  0
 24 27  2  0  0  0  0
 24 28  2  0  0  0  0
 25 29  2  0  0  0  0
 25 30  2  0  0  0  0
 31 32  2  0  0  0  0
 31 33  1  0  0  0  0
 31 34  1  0  0  0  0
 32 35  1  0  0  0  0
 32 36  1  0  0  0  0
 35 37  4  0  0  0  0
 37 38  4  0  0  0  0
 38 39  4  0  0  0  0
 35 40  4  0  0  0  0
 39 41  4  0  0  0  0
 40 41  4  0  0  0  0
 40 42  1  0  0  0  0
 41 43  1  0  0  0  0
 38 44  1  0  0  0  0
 37 45  1  0  0  0  0
 39 46  1  0  0  0  0
 46 47  1  0  0  0  0
 46 48  1  0  0  0  0
 46 49  1  0  0  0  0
 47 50  1  0  0  0  0
 47 51  1  0  0  0  0
 51 52  1  0  0  0  0
 51 53  1  0  0  0  0
 51 54  1  0  0  0  0
 50 55  1  0  0  0  0
 52 55  1  0  0  0  0
 52 56  1  0  0  0  0
 52 57  1  0  0  0  0
 50 58  1  0  0  0  0
 50 59  1  0  0  0  0
 55 60  1  0  0  0  0
 60 61  1  0  0  0  0
 60 62  1  0  0  0  0
 60 63  1  0  0  0  0
 61 64  1  0  0  0  0
 61 65  1  0  0  0  0
 61 66  1  0  0  0  0
 64 67  1  0  0  0  0
 64 68  1  0  0  0  0
 64 69  1  0  0  0  0
 67 70  1  0  0  0  0
 67 71  1  0  0  0  0
 67 72  1  0  0  0  0
 55 73  1  0  0  0  0
 74 75  2  0  0  0  0
 74 76  1  0  0  0  0
 74 77  1  0  0  0  0
 75 78  1  0  0  0  0
 75 79  1  0  0  0  0
 78 80  4  0  0  0  0
 80 81  4  0  0  0  0
 81 82  4  0  0  0  0
 78 83  4  0  0  0  0
 82 84  4  0  0  0  0
 83 84  4  0  0  0  0
 83 85  1  0  0  0  0
 84 86  1  0  0  0  0
 81 87  1  0  0  0  0
 80 88  1  0  0  0  0
 82 89  1  0  0  0  0
 89 90  1  0  0  0  0
 89 91  1  0  0  0  0
 89 92  1  0  0  0  0
 90 93  1  0  0  0  0
 90 94  1  0  0  0  0
 94 95  1  0  0  0  0
 94 96  1  0  0  0  0
 94 97  1  0  0  0  0
 93 98  1  0  0  0  0
 95 98  1  0  0  0  0
 95 99  1  0  0  0  0
 95100  1  0  0  0  0
 93101  1  0  0  0  0
 93102  1  0  0  0  0
 98103  1  0  0  0  0
103104  1  0  0  0  0
103105  1  0  0  0  0
103106  1  0  0  0  0
104107  1  0  0  0  0
104108  1  0  0  0  0
104109  1  0  0  0  0
107110  1  0  0  0  0
107111  1  0  0  0  0
107112  1  0  0  0  0
110113  1  0  0  0  0
110114  1  0  0  0  0
110115  1  0  0  0  0
 98116  1  0  0  0  0
M  END
