 xtb: 6.7.1 (edcfbbe)
          10212513323D

116116  0     0  0            999 V2000
    1.0941    4.9901    4.1140 C   0  0  0  0  0  0  0  0  0  0  0  0
    4.5627    2.2735    2.9836 C   0  0  0  0  0  0  0  0  0  0  0  0
    0.5112    6.1877    3.9524 F   0  0  0  0  0  0  0  0  0  0  0  0
    0.3320    4.1012    3.5034 F   0  0  0  0  0  0  0  0  0  0  0  0
    1.0986    4.7384    5.4258 F   0  0  0  0  0  0  0  0  0  0  0  0
    3.7884    1.7901    2.0329 F   0  0  0  0  0  0  0  0  0  0  0  0
    5.3467    3.2262    2.4872 F   0  0  0  0  0  0  0  0  0  0  0  0
    5.3774    1.2748    3.3710 F   0  0  0  0  0  0  0  0  0  0  0  0
    2.8620    5.0604    3.4400 S   0  0  0  0  0  0  0  0  0  0  0  0
    3.6274    2.8572    4.5202 S   0  0  0  0  0  0  0  0  0  0  0  0
    3.7486    4.4270    4.5794 N   0  0  0  0  0  0  0  0  0  0  0  0
    2.8622    4.2664    2.2593 O   0  0  0  0  0  0  0  0  0  0  0  0
    3.1320    6.4651    3.3276 O   0  0  0  0  0  0  0  0  0  0  0  0
    4.3929    2.2862    5.6022 O   0  0  0  0  0  0  0  0  0  0  0  0
    2.2857    2.3884    4.4068 O   0  0  0  0  0  0  0  0  0  0  0  0
    0.7883   10.2601    8.2691 C   0  0  0  0  0  0  0  0  0  0  0  0
    4.8876    9.1664   10.3751 C   0  0  0  0  0  0  0  0  0  0  0  0
    1.5509   10.9366    7.4069 F   0  0  0  0  0  0  0  0  0  0  0  0
    0.2057    9.2725    7.5678 F   0  0  0  0  0  0  0  0  0  0  0  0
   -0.1792   11.0811    8.6738 F   0  0  0  0  0  0  0  0  0  0  0  0
    4.1579    8.7097   11.3926 F   0  0  0  0  0  0  0  0  0  0  0  0
    6.0476    8.4871   10.4146 F   0  0  0  0  0  0  0  0  0  0  0  0
    5.1901   10.4355   10.5841 F   0  0  0  0  0  0  0  0  0  0  0  0
    1.7419    9.5034    9.7199 S   0  0  0  0  0  0  0  0  0  0  0  0
    4.0713    8.8064    8.7056 S   0  0  0  0  0  0  0  0  0  0  0  0
    2.5898    8.3787    9.0008 N   0  0  0  0  0  0  0  0  0  0  0  0
    2.5649   10.5473   10.2403 O   0  0  0  0  0  0  0  0  0  0  0  0
    0.6955    8.9763   10.5285 O   0  0  0  0  0  0  0  0  0  0  0  0
    4.8241    7.6964    8.1967 O   0  0  0  0  0  0  0  0  0  0  0  0
    4.1854    9.9994    7.9085 O   0  0  0  0  0  0  0  0  0  0  0  0
    1.7388    6.3632   11.6550 C   0  0  0  0  0  0  0  0  0  0  0  0
    1.9713    6.0408   10.3881 C   0  0  0  0  0  0  0  0  0  0  0  0
    0.7636    6.6851   11.9705 H   0  0  0  0  0  0  0  0  0  0  0  0
    2.5050    6.3584   12.4117 H   0  0  0  0  0  0  0  0  0  0  0  0
    3.2446    5.6042    9.8342 C   0  0  0  0  0  0  0  0  0  0  0  0
    1.1585    6.0832    9.6779 H   0  0  0  0  0  0  0  0  0  0  0  0
    4.4288    5.5985   10.5730 C   0  0  0  0  0  0  0  0  0  0  0  0
    5.5940    5.0870   10.0413 C   0  0  0  0  0  0  0  0  0  0  0  0
    5.6178    4.5377    8.7630 C   0  0  0  0  0  0  0  0  0  0  0  0
    3.3068    5.1652    8.5096 C   0  0  0  0  0  0  0  0  0  0  0  0
    4.4671    4.6259    7.9812 C   0  0  0  0  0  0  0  0  0  0  0  0
    2.4314    5.2545    7.8836 H   0  0  0  0  0  0  0  0  0  0  0  0
    4.4832    4.3155    6.9434 H   0  0  0  0  0  0  0  0  0  0  0  0
    6.5036    5.1235   10.6247 H   0  0  0  0  0  0  0  0  0  0  0  0
    4.4406    6.0067   11.5707 H   0  0  0  0  0  0  0  0  0  0  0  0
    6.8334    3.7822    8.2910 C   0  0  0  0  0  0  0  0  0  0  0  0
    6.8108    2.3492    8.6370 N   0  0  0  0  0  0  0  0  0  0  0  0
    7.7335    4.1943    8.7536 H   0  0  0  0  0  0  0  0  0  0  0  0
    6.9355    3.8485    7.2080 H   0  0  0  0  0  0  0  0  0  0  0  0
    6.0131    1.5195    7.8158 C   0  0  0  0  0  0  0  0  0  0  0  0
    6.3435    2.0339    9.9722 C   0  0  0  0  0  0  0  0  0  0  0  0
    4.8147    1.7973    9.8347 C   0  0  0  0  0  0  0  0  0  0  0  0
    6.5762    2.8321   10.6708 H   0  0  0  0  0  0  0  0  0  0  0  0
    6.8404    1.1178   10.3029 H   0  0  0  0  0  0  0  0  0  0  0  0
    4.5992    1.6408    8.3783 N   0  0  0  0  0  0  0  0  0  0  0  0
    4.2445    2.6430   10.2159 H   0  0  0  0  0  0  0  0  0  0  0  0
    4.5075    0.8873   10.3493 H   0  0  0  0  0  0  0  0  0  0  0  0
    6.3116    0.4724    7.9368 H   0  0  0  0  0  0  0  0  0  0  0  0
    6.0070    1.7974    6.7642 H   0  0  0  0  0  0  0  0  0  0  0  0
    3.6805    0.5642    7.9706 C   0  0  0  0  0  0  0  0  0  0  0  0
    2.2479    0.8067    8.4389 C   0  0  0  0  0  0  0  0  0  0  0  0
    4.0631   -0.3799    8.3688 H   0  0  0  0  0  0  0  0  0  0  0  0
    3.7025    0.5369    6.8794 H   0  0  0  0  0  0  0  0  0  0  0  0
    1.6381    2.0808    7.8526 C   0  0  0  0  0  0  0  0  0  0  0  0
    2.2006    0.8450    9.5300 H   0  0  0  0  0  0  0  0  0  0  0  0
    1.6530   -0.0496    8.1165 H   0  0  0  0  0  0  0  0  0  0  0  0
    0.1535    2.1914    8.1803 C   0  0  0  0  0  0  0  0  0  0  0  0
    1.7716    2.0868    6.7696 H   0  0  0  0  0  0  0  0  0  0  0  0
    2.1425    2.9586    8.2603 H   0  0  0  0  0  0  0  0  0  0  0  0
   -0.3973    1.3515    7.7647 H   0  0  0  0  0  0  0  0  0  0  0  0
   -0.2487    3.1064    7.7567 H   0  0  0  0  0  0  0  0  0  0  0  0
   -0.0041    2.2123    9.2570 H   0  0  0  0  0  0  0  0  0  0  0  0
    4.2403    2.5271    7.9789 H   0  0  0  0  0  0  0  0  0  0  0  0
    4.9775    4.7027   -0.3730 C   0  0  0  0  0  0  0  0  0  0  0  0
    3.7479    5.1985   -0.3147 C   0  0  0  0  0  0  0  0  0  0  0  0
    5.1718    3.7462   -0.8260 H   0  0  0  0  0  0  0  0  0  0  0  0
    5.8310    5.2069    0.0468 H   0  0  0  0  0  0  0  0  0  0  0  0
    3.3624    6.4630    0.2962 C   0  0  0  0  0  0  0  0  0  0  0  0
    2.9268    4.6207   -0.7163 H   0  0  0  0  0  0  0  0  0  0  0  0
    2.0163    6.7063    0.5688 C   0  0  0  0  0  0  0  0  0  0  0  0
    1.6115    7.8746    1.1825 C   0  0  0  0  0  0  0  0  0  0  0  0
    2.5334    8.8568    1.5252 C   0  0  0  0  0  0  0  0  0  0  0  0
    4.2826    7.4556    0.6274 C   0  0  0  0  0  0  0  0  0  0  0  0
    3.8733    8.6320    1.2221 C   0  0  0  0  0  0  0  0  0  0  0  0
    5.3293    7.3152    0.4035 H   0  0  0  0  0  0  0  0  0  0  0  0
    4.6113    9.3965    1.4283 H   0  0  0  0  0  0  0  0  0  0  0  0
    0.5625    8.0332    1.3901 H   0  0  0  0  0  0  0  0  0  0  0  0
    1.2848    5.9545    0.3125 H   0  0  0  0  0  0  0  0  0  0  0  0
    2.0870   10.1352    2.1945 C   0  0  0  0  0  0  0  0  0  0  0  0
    2.3193   10.2396    3.6329 N   0  0  0  0  0  0  0  0  0  0  0  0
    1.0136   10.2708    2.0475 H   0  0  0  0  0  0  0  0  0  0  0  0
    2.5944   10.9905    1.7388 H   0  0  0  0  0  0  0  0  0  0  0  0
    3.6732   10.2258    4.0686 C   0  0  0  0  0  0  0  0  0  0  0  0
    1.6239    9.2658    4.4776 C   0  0  0  0  0  0  0  0  0  0  0  0
    2.7172    8.5631    5.3042 C   0  0  0  0  0  0  0  0  0  0  0  0
    1.0843    8.5475    3.8602 H   0  0  0  0  0  0  0  0  0  0  0  0
    0.9140    9.7819    5.1250 H   0  0  0  0  0  0  0  0  0  0  0  0
    3.9432    8.8199    4.5186 N   0  0  0  0  0  0  0  0  0  0  0  0
    2.5451    7.4961    5.4079 H   0  0  0  0  0  0  0  0  0  0  0  0
    2.8412    9.0125    6.2900 H   0  0  0  0  0  0  0  0  0  0  0  0
    3.7873   10.8496    4.9655 H   0  0  0  0  0  0  0  0  0  0  0  0
    4.3684   10.5506    3.2948 H   0  0  0  0  0  0  0  0  0  0  0  0
    5.2274    8.6634    5.2275 C   0  0  0  0  0  0  0  0  0  0  0  0
    5.6791    7.2124    5.3338 C   0  0  0  0  0  0  0  0  0  0  0  0
    5.1113    9.0950    6.2235 H   0  0  0  0  0  0  0  0  0  0  0  0
    5.9767    9.2397    4.6771 H   0  0  0  0  0  0  0  0  0  0  0  0
    6.3646    6.6949    4.0690 C   0  0  0  0  0  0  0  0  0  0  0  0
    4.8298    6.5722    5.5664 H   0  0  0  0  0  0  0  0  0  0  0  0
    6.3617    7.1453    6.1810 H   0  0  0  0  0  0  0  0  0  0  0  0
    6.9864    5.3271    4.3232 C   0  0  0  0  0  0  0  0  0  0  0  0
    7.1445    7.3949    3.7564 H   0  0  0  0  0  0  0  0  0  0  0  0
    5.6333    6.6040    3.2633 H   0  0  0  0  0  0  0  0  0  0  0  0
    7.7499    5.3962    5.0956 H   0  0  0  0  0  0  0  0  0  0  0  0
    7.4407    4.9347    3.4171 H   0  0  0  0  0  0  0  0  0  0  0  0
    6.2127    4.6357    4.6477 H   0  0  0  0  0  0  0  0  0  0  0  0
    3.8996    8.1590    3.7209 H   0  0  0  0  0  0  0  0  0  0  0  0
  1  3  1  0  0  0  0
  1  4  1  0  0  0  0
  1  5  1  0  0  0  0
  2  6  1  0  0  0  0
  2  7  1  0  0  0  0
  2  8  1  0  0  0  0
  1  9  1  0  0  0  0
  2 10  1  0  0  0  0
  9 11  1  0  0  0  0
 10 11  1  0  0  0  0
  9 12  2  0  0  0  0
  9 13  2  0  0  0  0
 10 14  2  0  0  0  0
 10 15  2  0  0  0  0
 16 18  1  0  0  0  0
 16 19  1  0  0  0  0
 16 20  1  0  0  0  0
 17 21  1  0  0  0  0
 17 22  1  0  0  0  0
 17 23  1  0  0  0  0
 16 24  1  0  0  0  0
 17 25  1  0  0  0  0
 24 26  1  0  0  0  0
 25 26  1  0  0  0  0
 24 27  2  0  0  0  0
 24 28  2  0  0  0  0
 25 29  2  0  0  0  0
 25 30  2  0  0  0  0
 31 32  2  0  0  0  0
 31 33  1  0  0  0  0
 31 34  1  0  0  0  0
 32 35  1  0  0  0  0
 32 36  1  0  0  0  0
 35 37  4  0  0  0  0
 37 38  4  0  0  0  0
 38 39  4  0  0  0  0
 35 40  4  0  0  0  0
 39 41  4  0  0  0  0
 40 41  4  0  0  0  0
 40 42  1  0  0  0  0
 41 43  1  0  0  0  0
 38 44  1  0  0  0  0
 37 45  1  0  0  0  0
 39 46  1  0  0  0  0
 46 47  1  0  0  0  0
 46 48  1  0  0  0  0
 46 49  1  0  0  0  0
 47 50  1  0  0  0  0
 47 51  1  0  0  0  0
 51 52  1  0  0  0  0
 51 53  1  0  0  0  0
 51 54  1  0  0  0  0
 50 55  1  0  0  0  0
 52 55  1  0  0  0  0
 52 56  1  0  0  0  0
 52 57  1  0  0  0  0
 50 58  1  0  0  0  0
 50 59  1  0  0  0  0
 55 60  1  0  0  0  0
 60 61  1  0  0  0  0
 60 62  1  0  0  0  0
 60 63  1  0  0  0  0
 61 64  1  0  0  0  0
 61 65  1  0  0  0  0
 61 66  1  0  0  0  0
 64 67  1  0  0  0  0
 64 68  1  0  0  0  0
 64 69  1  0  0  0  0
 67 70  1  0  0  0  0
 67 71  1  0  0  0  0
 67 72  1  0  0  0  0
 55 73  1  0  0  0  0
 74 75  2  0  0  0  0
 74 76  1  0  0  0  0
 74 77  1  0  0  0  0
 75 78  1  0  0  0  0
 75 79  1  0  0  0  0
 78 80  4  0  0  0  0
 80 81  4  0  0  0  0
 81 82  4  0  0  0  0
 78 83  4  0  0  0  0
 82 84  4  0  0  0  0
 83 84  4  0  0  0  0
 83 85  1  0  0  0  0
 84 86  1  0  0  0  0
 81 87  1  0  0  0  0
 80 88  1  0  0  0  0
 82 89  1  0  0  0  0
 89 90  1  0  0  0  0
 89 91  1  0  0  0  0
 89 92  1  0  0  0  0
 90 93  1  0  0  0  0
 90 94  1  0  0  0  0
 94 95  1  0  0  0  0
 94 96  1  0  0  0  0
 94 97  1  0  0  0  0
 93 98  1  0  0  0  0
 95 98  1  0  0  0  0
 95 99  1  0  0  0  0
 95100  1  0  0  0  0
 93101  1  0  0  0  0
 93102  1  0  0  0  0
 98103  1  0  0  0  0
103104  1  0  0  0  0
103105  1  0  0  0  0
103106  1  0  0  0  0
104107  1  0  0  0  0
104108  1  0  0  0  0
104109  1  0  0  0  0
107110  1  0  0  0  0
107111  1  0  0  0  0
107112  1  0  0  0  0
110113  1  0  0  0  0
110114  1  0  0  0  0
110115  1  0  0  0  0
 98116  1  0  0  0  0
M  END
