 xtb: 6.7.1 (edcfbbe)
          10212513523D

116116  0     0  0            999 V2000
    3.5999    6.7616   10.3384 C   0  0  0  0  0  0  0  0  0  0  0  0
    2.0500    9.8161    7.0867 C   0  0  0  0  0  0  0  0  0  0  0  0
    3.1404    7.6453   11.2296 F   0  0  0  0  0  0  0  0  0  0  0  0
    3.4690    5.5636   10.9043 F   0  0  0  0  0  0  0  0  0  0  0  0
    4.9005    7.0134   10.1816 F   0  0  0  0  0  0  0  0  0  0  0  0
    1.6329    8.7586    6.3874 F   0  0  0  0  0  0  0  0  0  0  0  0
    1.1862   10.8043    6.8488 F   0  0  0  0  0  0  0  0  0  0  0  0
    3.2266   10.2018    6.5692 F   0  0  0  0  0  0  0  0  0  0  0  0
    2.5913    6.8836    8.7420 S   0  0  0  0  0  0  0  0  0  0  0  0
    2.2071    9.4599    8.9568 S   0  0  0  0  0  0  0  0  0  0  0  0
    1.5708    8.0313    9.0928 N   0  0  0  0  0  0  0  0  0  0  0  0
    3.4698    7.2313    7.6627 O   0  0  0  0  0  0  0  0  0  0  0  0
    1.9124    5.6298    8.6164 O   0  0  0  0  0  0  0  0  0  0  0  0
    1.4355   10.4869    9.5668 O   0  0  0  0  0  0  0  0  0  0  0  0
    3.6292    9.4917    9.1878 O   0  0  0  0  0  0  0  0  0  0  0  0
    6.1509    3.8979   10.5325 C   0  0  0  0  0  0  0  0  0  0  0  0
    9.3801    5.3609    7.5387 C   0  0  0  0  0  0  0  0  0  0  0  0
    4.9857    3.2796   10.7771 F   0  0  0  0  0  0  0  0  0  0  0  0
    7.0933    2.9826   10.6937 F   0  0  0  0  0  0  0  0  0  0  0  0
    6.2962    4.8612   11.4292 F   0  0  0  0  0  0  0  0  0  0  0  0
    9.2426    4.0902    7.1903 F   0  0  0  0  0  0  0  0  0  0  0  0
    9.0538    6.1226    6.4867 F   0  0  0  0  0  0  0  0  0  0  0  0
   10.6705    5.5796    7.7959 F   0  0  0  0  0  0  0  0  0  0  0  0
    6.0042    4.5243    8.7597 S   0  0  0  0  0  0  0  0  0  0  0  0
    8.3254    5.8766    9.0126 S   0  0  0  0  0  0  0  0  0  0  0  0
    6.8388    5.8260    8.5058 N   0  0  0  0  0  0  0  0  0  0  0  0
    6.4317    3.4142    7.9546 O   0  0  0  0  0  0  0  0  0  0  0  0
    4.5942    4.8232    8.6432 O   0  0  0  0  0  0  0  0  0  0  0  0
    8.7353    7.2419    9.1863 O   0  0  0  0  0  0  0  0  0  0  0  0
    8.6025    4.9364   10.0438 O   0  0  0  0  0  0  0  0  0  0  0  0
   10.5698    4.1813    2.0882 C   0  0  0  0  0  0  0  0  0  0  0  0
    9.4685    4.8918    1.8743 C   0  0  0  0  0  0  0  0  0  0  0  0
   11.3737    4.1668    1.3722 H   0  0  0  0  0  0  0  0  0  0  0  0
   10.7213    3.5946    2.9769 H   0  0  0  0  0  0  0  0  0  0  0  0
    8.3165    5.0018    2.7610 C   0  0  0  0  0  0  0  0  0  0  0  0
    9.3852    5.4642    0.9580 H   0  0  0  0  0  0  0  0  0  0  0  0
    7.2367    5.7990    2.3749 C   0  0  0  0  0  0  0  0  0  0  0  0
    6.1273    5.9430    3.1858 C   0  0  0  0  0  0  0  0  0  0  0  0
    6.0642    5.2995    4.4153 C   0  0  0  0  0  0  0  0  0  0  0  0
    8.2362    4.3441    3.9893 C   0  0  0  0  0  0  0  0  0  0  0  0
    7.1298    4.4919    4.8017 C   0  0  0  0  0  0  0  0  0  0  0  0
    9.0450    3.7114    4.3190 H   0  0  0  0  0  0  0  0  0  0  0  0
    7.0922    3.9838    5.7546 H   0  0  0  0  0  0  0  0  0  0  0  0
    5.2990    6.5590    2.8669 H   0  0  0  0  0  0  0  0  0  0  0  0
    7.2735    6.3134    1.4244 H   0  0  0  0  0  0  0  0  0  0  0  0
    4.8670    5.4413    5.3112 C   0  0  0  0  0  0  0  0  0  0  0  0
    3.7786    4.5545    4.8747 N   0  0  0  0  0  0  0  0  0  0  0  0
    4.4652    6.4553    5.2617 H   0  0  0  0  0  0  0  0  0  0  0  0
    5.1679    5.2563    6.3502 H   0  0  0  0  0  0  0  0  0  0  0  0
    2.6393    4.6024    5.7244 C   0  0  0  0  0  0  0  0  0  0  0  0
    4.1141    3.1450    4.8495 C   0  0  0  0  0  0  0  0  0  0  0  0
    3.8698    2.6418    6.2892 C   0  0  0  0  0  0  0  0  0  0  0  0
    5.1384    2.9918    4.5197 H   0  0  0  0  0  0  0  0  0  0  0  0
    3.4389    2.6489    4.1460 H   0  0  0  0  0  0  0  0  0  0  0  0
    2.9152    3.6262    6.8558 N   0  0  0  0  0  0  0  0  0  0  0  0
    4.7955    2.6440    6.8653 H   0  0  0  0  0  0  0  0  0  0  0  0
    3.4326    1.6448    6.3008 H   0  0  0  0  0  0  0  0  0  0  0  0
    1.7600    4.2322    5.1855 H   0  0  0  0  0  0  0  0  0  0  0  0
    2.4526    5.5944    6.1345 H   0  0  0  0  0  0  0  0  0  0  0  0
    1.7090    3.0416    7.4624 C   0  0  0  0  0  0  0  0  0  0  0  0
    2.0451    2.3546    8.7808 C   0  0  0  0  0  0  0  0  0  0  0  0
    1.2543    2.3493    6.7465 H   0  0  0  0  0  0  0  0  0  0  0  0
    1.0243    3.8639    7.6719 H   0  0  0  0  0  0  0  0  0  0  0  0
    0.7793    1.9472    9.5329 C   0  0  0  0  0  0  0  0  0  0  0  0
    2.6046    3.0618    9.3943 H   0  0  0  0  0  0  0  0  0  0  0  0
    2.6696    1.4745    8.6142 H   0  0  0  0  0  0  0  0  0  0  0  0
    1.1200    1.3115   10.8743 C   0  0  0  0  0  0  0  0  0  0  0  0
    0.1981    1.2450    8.9297 H   0  0  0  0  0  0  0  0  0  0  0  0
    0.1704    2.8365    9.6974 H   0  0  0  0  0  0  0  0  0  0  0  0
    0.2135    1.0578   11.4177 H   0  0  0  0  0  0  0  0  0  0  0  0
    1.7041    2.0027   11.4752 H   0  0  0  0  0  0  0  0  0  0  0  0
    1.7019    0.4037   10.7333 H   0  0  0  0  0  0  0  0  0  0  0  0
    3.3881    4.1731    7.6079 H   0  0  0  0  0  0  0  0  0  0  0  0
   11.1787   11.1597    4.3839 C   0  0  0  0  0  0  0  0  0  0  0  0
   10.9834   12.0375    5.3604 C   0  0  0  0  0  0  0  0  0  0  0  0
   11.5600   11.4654    3.4249 H   0  0  0  0  0  0  0  0  0  0  0  0
   10.9611   10.1111    4.4930 H   0  0  0  0  0  0  0  0  0  0  0  0
   10.4503   11.7412    6.6851 C   0  0  0  0  0  0  0  0  0  0  0  0
   11.1978   13.0841    5.1818 H   0  0  0  0  0  0  0  0  0  0  0  0
   10.0043   12.7915    7.4897 C   0  0  0  0  0  0  0  0  0  0  0  0
    9.4442   12.5520    8.7298 C   0  0  0  0  0  0  0  0  0  0  0  0
    9.3073   11.2538    9.2109 C   0  0  0  0  0  0  0  0  0  0  0  0
   10.3609   10.4437    7.1942 C   0  0  0  0  0  0  0  0  0  0  0  0
    9.7953   10.2014    8.4336 C   0  0  0  0  0  0  0  0  0  0  0  0
   10.7465    9.6138    6.6232 H   0  0  0  0  0  0  0  0  0  0  0  0
    9.7526    9.1879    8.8101 H   0  0  0  0  0  0  0  0  0  0  0  0
    9.1212   13.3871    9.3356 H   0  0  0  0  0  0  0  0  0  0  0  0
   10.0945   13.8076    7.1322 H   0  0  0  0  0  0  0  0  0  0  0  0
    8.6038   10.9793   10.5181 C   0  0  0  0  0  0  0  0  0  0  0  0
    7.1665   10.7272   10.4120 N   0  0  0  0  0  0  0  0  0  0  0  0
    8.7206   11.8357   11.1879 H   0  0  0  0  0  0  0  0  0  0  0  0
    9.0417   10.1031   10.9988 H   0  0  0  0  0  0  0  0  0  0  0  0
    6.7749    9.5011    9.8106 C   0  0  0  0  0  0  0  0  0  0  0  0
    6.3924   11.7100    9.6775 C   0  0  0  0  0  0  0  0  0  0  0  0
    6.2617   11.1536    8.2345 C   0  0  0  0  0  0  0  0  0  0  0  0
    6.8628   12.6903    9.7114 H   0  0  0  0  0  0  0  0  0  0  0  0
    5.4019   11.7705   10.1329 H   0  0  0  0  0  0  0  0  0  0  0  0
    6.8062    9.7806    8.3195 N   0  0  0  0  0  0  0  0  0  0  0  0
    6.8204   11.7431    7.5081 H   0  0  0  0  0  0  0  0  0  0  0  0
    5.2135   11.0891    7.9491 H   0  0  0  0  0  0  0  0  0  0  0  0
    5.7315    9.2858   10.0538 H   0  0  0  0  0  0  0  0  0  0  0  0
    7.4192    8.6564   10.0482 H   0  0  0  0  0  0  0  0  0  0  0  0
    6.1311    8.7730    7.4842 C   0  0  0  0  0  0  0  0  0  0  0  0
    6.2099    9.1055    5.9989 C   0  0  0  0  0  0  0  0  0  0  0  0
    5.0890    8.7130    7.7985 H   0  0  0  0  0  0  0  0  0  0  0  0
    6.5937    7.8054    7.6902 H   0  0  0  0  0  0  0  0  0  0  0  0
    7.6314    9.1522    5.4408 C   0  0  0  0  0  0  0  0  0  0  0  0
    5.7031   10.0503    5.7959 H   0  0  0  0  0  0  0  0  0  0  0  0
    5.6559    8.3252    5.4793 H   0  0  0  0  0  0  0  0  0  0  0  0
    7.6161    9.3216    3.9248 C   0  0  0  0  0  0  0  0  0  0  0  0
    8.1487    8.2253    5.6949 H   0  0  0  0  0  0  0  0  0  0  0  0
    8.1868    9.9888    5.8764 H   0  0  0  0  0  0  0  0  0  0  0  0
    7.1297    8.4711    3.4558 H   0  0  0  0  0  0  0  0  0  0  0  0
    8.6288    9.3937    3.5379 H   0  0  0  0  0  0  0  0  0  0  0  0
    7.0799   10.2264    3.6474 H   0  0  0  0  0  0  0  0  0  0  0  0
    7.8059    9.7901    8.0632 H   0  0  0  0  0  0  0  0  0  0  0  0
  1  3  1  0  0  0  0
  1  4  1  0  0  0  0
  1  5  1  0  0  0  0
  2  6  1  0  0  0  0
  2  7  1  0  0  0  0
  2  8  1  0  0  0  0
  1  9  1  0  0  0  0
  2 10  1  0  0  0  0
  9 11  1  0  0  0  0
 10 11  1  0  0  0  0
  9 12  2  0  0  0  0
  9 13  2  0  0  0  0
 10 14  2  0  0  0  0
 10 15  2  0  0  0  0
 16 18  1  0  0  0  0
 16 19  1  0  0  0  0
 16 20  1  0  0  0  0
 17 21  1  0  0  0  0
 17 22  1  0  0  0  0
 17 23  1  0  0  0  0
 16 24  1  0  0  0  0
 17 25  1  0  0  0  0
 24 26  1  0  0  0  0
 25 26  1  0  0  0  0
 24 27  2  0  0  0  0
 24 28  2  0  0  0  0
 25 29  2  0  0  0  0
 25 30  2  0  0  0  0
 31 32  2  0  0  0  0
 31 33  1  0  0  0  0
 31 34  1  0  0  0  0
 32 35  1  0  0  0  0
 32 36  1  0  0  0  0
 35 37  4  0  0  0  0
 37 38  4  0  0  0  0
 38 39  4  0  0  0  0
 35 40  4  0  0  0  0
 39 41  4  0  0  0  0
 40 41  4  0  0  0  0
 40 42  1  0  0  0  0
 41 43  1  0  0  0  0
 38 44  1  0  0  0  0
 37 45  1  0  0  0  0
 39 46  1  0  0  0  0
 46 47  1  0  0  0  0
 46 48  1  0  0  0  0
 46 49  1  0  0  0  0
 47 50  1  0  0  0  0
 47 51  1  0  0  0  0
 51 52  1  0  0  0  0
 51 53  1  0  0  0  0
 51 54  1  0  0  0  0
 50 55  1  0  0  0  0
 52 55  1  0  0  0  0
 52 56  1  0  0  0  0
 52 57  1  0  0  0  0
 50 58  1  0  0  0  0
 50 59  1  0  0  0  0
 55 60  1  0  0  0  0
 60 61  1  0  0  0  0
 60 62  1  0  0  0  0
 60 63  1  0  0  0  0
 61 64  1  0  0  0  0
 61 65  1  0  0  0  0
 61 66  1  0  0  0  0
 64 67  1  0  0  0  0
 64 68  1  0  0  0  0
 64 69  1  0  0  0  0
 67 70  1  0  0  0  0
 67 71  1  0  0  0  0
 67 72  1  0  0  0  0
 55 73  1  0  0  0  0
 74 75  2  0  0  0  0
 74 76  1  0  0  0  0
 74 77  1  0  0  0  0
 75 78  1  0  0  0  0
 75 79  1  0  0  0  0
 78 80  4  0  0  0  0
 80 81  4  0  0  0  0
 81 82  4  0  0  0  0
 78 83  4  0  0  0  0
 82 84  4  0  0  0  0
 83 84  4  0  0  0  0
 83 85  1  0  0  0  0
 84 86  1  0  0  0  0
 81 87  1  0  0  0  0
 80 88  1  0  0  0  0
 82 89  1  0  0  0  0
 89 90  1  0  0  0  0
 89 91  1  0  0  0  0
 89 92  1  0  0  0  0
 90 93  1  0  0  0  0
 90 94  1  0  0  0  0
 94 95  1  0  0  0  0
 94 96  1  0  0  0  0
 94 97  1  0  0  0  0
 93 98  1  0  0  0  0
 95 98  1  0  0  0  0
 95 99  1  0  0  0  0
 95100  1  0  0  0  0
 93101  1  0  0  0  0
 93102  1  0  0  0  0
 98103  1  0  0  0  0
103104  1  0  0  0  0
103105  1  0  0  0  0
103106  1  0  0  0  0
104107  1  0  0  0  0
104108  1  0  0  0  0
104109  1  0  0  0  0
107110  1  0  0  0  0
107111  1  0  0  0  0
107112  1  0  0  0  0
110113  1  0  0  0  0
110114  1  0  0  0  0
110115  1  0  0  0  0
 98116  1  0  0  0  0
M  END
