 xtb: 6.7.1 (edcfbbe)
          10212513433D

116116  0     0  0            999 V2000
    1.5887    4.6354    8.3977 C   0  0  0  0  0  0  0  0  0  0  0  0
    5.8978    3.9226    9.8061 C   0  0  0  0  0  0  0  0  0  0  0  0
    1.2659    5.0080    9.6234 F   0  0  0  0  0  0  0  0  0  0  0  0
    0.8022    5.3258    7.5552 F   0  0  0  0  0  0  0  0  0  0  0  0
    1.2862    3.3497    8.2333 F   0  0  0  0  0  0  0  0  0  0  0  0
    6.4171    4.6320    8.7876 F   0  0  0  0  0  0  0  0  0  0  0  0
    5.6766    4.7430   10.8196 F   0  0  0  0  0  0  0  0  0  0  0  0
    6.8579    3.0720   10.1880 F   0  0  0  0  0  0  0  0  0  0  0  0
    3.3979    4.9780    7.9602 S   0  0  0  0  0  0  0  0  0  0  0  0
    4.3840    2.9334    9.2117 S   0  0  0  0  0  0  0  0  0  0  0  0
    4.0814    3.5696    7.7846 N   0  0  0  0  0  0  0  0  0  0  0  0
    3.3254    5.6305    6.6764 O   0  0  0  0  0  0  0  0  0  0  0  0
    3.9341    5.7519    9.0334 O   0  0  0  0  0  0  0  0  0  0  0  0
    3.3295    3.1717   10.1400 O   0  0  0  0  0  0  0  0  0  0  0  0
    4.8925    1.6075    9.0717 O   0  0  0  0  0  0  0  0  0  0  0  0
    9.0457   11.0326    4.1759 C   0  0  0  0  0  0  0  0  0  0  0  0
    7.0300    7.5586    1.6656 C   0  0  0  0  0  0  0  0  0  0  0  0
    8.4875   11.4355    5.3266 F   0  0  0  0  0  0  0  0  0  0  0  0
    9.9398   10.0985    4.4632 F   0  0  0  0  0  0  0  0  0  0  0  0
    9.6752   12.0723    3.6425 F   0  0  0  0  0  0  0  0  0  0  0  0
    6.4930    6.3211    1.5865 F   0  0  0  0  0  0  0  0  0  0  0  0
    6.0974    8.3974    1.2189 F   0  0  0  0  0  0  0  0  0  0  0  0
    8.0750    7.5654    0.8690 F   0  0  0  0  0  0  0  0  0  0  0  0
    7.6524   10.4532    3.0561 S   0  0  0  0  0  0  0  0  0  0  0  0
    7.3974    7.8230    3.5022 S   0  0  0  0  0  0  0  0  0  0  0  0
    6.9478    9.2881    3.8824 N   0  0  0  0  0  0  0  0  0  0  0  0
    6.7777   11.5824    3.0209 O   0  0  0  0  0  0  0  0  0  0  0  0
    8.2237    9.9454    1.8565 O   0  0  0  0  0  0  0  0  0  0  0  0
    8.7677    7.5165    3.6975 O   0  0  0  0  0  0  0  0  0  0  0  0
    6.4349    6.9310    4.1131 O   0  0  0  0  0  0  0  0  0  0  0  0
    0.9313    0.4513    6.6706 C   0  0  0  0  0  0  0  0  0  0  0  0
    1.5344    0.2028    5.5144 C   0  0  0  0  0  0  0  0  0  0  0  0
   -0.1212    0.2665    6.8020 H   0  0  0  0  0  0  0  0  0  0  0  0
    1.4520    0.8602    7.5188 H   0  0  0  0  0  0  0  0  0  0  0  0
    2.9473    0.4268    5.2322 C   0  0  0  0  0  0  0  0  0  0  0  0
    0.9576   -0.1812    4.6805 H   0  0  0  0  0  0  0  0  0  0  0  0
    3.8873    0.6506    6.2386 C   0  0  0  0  0  0  0  0  0  0  0  0
    5.2131    0.8794    5.9317 C   0  0  0  0  0  0  0  0  0  0  0  0
    5.6488    0.8995    4.6106 C   0  0  0  0  0  0  0  0  0  0  0  0
    3.3953    0.4031    3.9094 C   0  0  0  0  0  0  0  0  0  0  0  0
    4.7225    0.6398    3.6036 C   0  0  0  0  0  0  0  0  0  0  0  0
    2.6930    0.2013    3.1126 H   0  0  0  0  0  0  0  0  0  0  0  0
    5.0453    0.6074    2.5709 H   0  0  0  0  0  0  0  0  0  0  0  0
    5.9040    1.0317    6.7465 H   0  0  0  0  0  0  0  0  0  0  0  0
    3.6026    0.6414    7.2764 H   0  0  0  0  0  0  0  0  0  0  0  0
    7.0816    1.2149    4.2670 C   0  0  0  0  0  0  0  0  0  0  0  0
    7.4305    2.6340    4.1979 N   0  0  0  0  0  0  0  0  0  0  0  0
    7.3272    0.7918    3.2877 H   0  0  0  0  0  0  0  0  0  0  0  0
    7.7518    0.7673    5.0018 H   0  0  0  0  0  0  0  0  0  0  0  0
    6.6208    3.4757    3.3872 C   0  0  0  0  0  0  0  0  0  0  0  0
    7.5962    3.3650    5.4369 C   0  0  0  0  0  0  0  0  0  0  0  0
    6.2490    4.0615    5.6774 C   0  0  0  0  0  0  0  0  0  0  0  0
    8.3848    4.1112    5.2914 H   0  0  0  0  0  0  0  0  0  0  0  0
    7.8753    2.7080    6.2562 H   0  0  0  0  0  0  0  0  0  0  0  0
    5.7205    4.2959    4.3088 N   0  0  0  0  0  0  0  0  0  0  0  0
    6.3548    5.0061    6.2046 H   0  0  0  0  0  0  0  0  0  0  0  0
    5.5531    3.4315    6.2348 H   0  0  0  0  0  0  0  0  0  0  0  0
    6.0222    2.9033    2.6792 H   0  0  0  0  0  0  0  0  0  0  0  0
    7.2508    4.1919    2.8484 H   0  0  0  0  0  0  0  0  0  0  0  0
    4.2738    4.0224    4.1798 C   0  0  0  0  0  0  0  0  0  0  0  0
    3.7073    4.5458    2.8613 C   0  0  0  0  0  0  0  0  0  0  0  0
    3.7749    4.5024    5.0240 H   0  0  0  0  0  0  0  0  0  0  0  0
    4.1275    2.9453    4.2628 H   0  0  0  0  0  0  0  0  0  0  0  0
    3.3432    6.0320    2.8991 C   0  0  0  0  0  0  0  0  0  0  0  0
    2.8071    3.9741    2.6306 H   0  0  0  0  0  0  0  0  0  0  0  0
    4.4218    4.3742    2.0540 H   0  0  0  0  0  0  0  0  0  0  0  0
    2.0955    6.2938    3.7372 C   0  0  0  0  0  0  0  0  0  0  0  0
    3.1647    6.3664    1.8746 H   0  0  0  0  0  0  0  0  0  0  0  0
    4.1853    6.6057    3.2906 H   0  0  0  0  0  0  0  0  0  0  0  0
    2.2816    6.1117    4.7916 H   0  0  0  0  0  0  0  0  0  0  0  0
    1.2831    5.6479    3.4130 H   0  0  0  0  0  0  0  0  0  0  0  0
    1.7655    7.3235    3.6210 H   0  0  0  0  0  0  0  0  0  0  0  0
    5.8704    5.2972    4.0986 H   0  0  0  0  0  0  0  0  0  0  0  0
   11.4378   10.6002    9.2880 C   0  0  0  0  0  0  0  0  0  0  0  0
   10.4565    9.9091    9.8552 C   0  0  0  0  0  0  0  0  0  0  0  0
   12.2658   10.9738    9.8658 H   0  0  0  0  0  0  0  0  0  0  0  0
   11.4571   10.8262    8.2357 H   0  0  0  0  0  0  0  0  0  0  0  0
    9.2823    9.3637    9.1842 C   0  0  0  0  0  0  0  0  0  0  0  0
   10.4867    9.7321   10.9233 H   0  0  0  0  0  0  0  0  0  0  0  0
    9.1681    9.2929    7.7952 C   0  0  0  0  0  0  0  0  0  0  0  0
    8.0249    8.7896    7.2042 C   0  0  0  0  0  0  0  0  0  0  0  0
    6.9648    8.3362    7.9821 C   0  0  0  0  0  0  0  0  0  0  0  0
    8.2249    8.8773    9.9580 C   0  0  0  0  0  0  0  0  0  0  0  0
    7.0846    8.3708    9.3683 C   0  0  0  0  0  0  0  0  0  0  0  0
    8.3041    8.8991   11.0354 H   0  0  0  0  0  0  0  0  0  0  0  0
    6.2764    7.9843    9.9717 H   0  0  0  0  0  0  0  0  0  0  0  0
    7.9615    8.7205    6.1246 H   0  0  0  0  0  0  0  0  0  0  0  0
    9.9854    9.6154    7.1701 H   0  0  0  0  0  0  0  0  0  0  0  0
    5.7114    7.8113    7.3471 C   0  0  0  0  0  0  0  0  0  0  0  0
    4.6113    8.7921    7.2600 N   0  0  0  0  0  0  0  0  0  0  0  0
    5.3267    6.9784    7.9409 H   0  0  0  0  0  0  0  0  0  0  0  0
    5.9444    7.4493    6.3422 H   0  0  0  0  0  0  0  0  0  0  0  0
    4.0165    8.9438    5.9999 C   0  0  0  0  0  0  0  0  0  0  0  0
    4.8241   10.1431    7.7143 C   0  0  0  0  0  0  0  0  0  0  0  0
    5.2721   10.9270    6.4532 C   0  0  0  0  0  0  0  0  0  0  0  0
    5.5569   10.1864    8.5154 H   0  0  0  0  0  0  0  0  0  0  0  0
    3.8724   10.5365    8.0845 H   0  0  0  0  0  0  0  0  0  0  0  0
    4.7799   10.1052    5.3190 N   0  0  0  0  0  0  0  0  0  0  0  0
    6.3556   11.0112    6.4082 H   0  0  0  0  0  0  0  0  0  0  0  0
    4.8322   11.9218    6.4128 H   0  0  0  0  0  0  0  0  0  0  0  0
    2.9810    9.2870    6.1019 H   0  0  0  0  0  0  0  0  0  0  0  0
    4.0568    8.0324    5.4079 H   0  0  0  0  0  0  0  0  0  0  0  0
    4.0046   10.8527    4.3153 C   0  0  0  0  0  0  0  0  0  0  0  0
    3.6331    9.9632    3.1356 C   0  0  0  0  0  0  0  0  0  0  0  0
    4.6343   11.6672    3.9484 H   0  0  0  0  0  0  0  0  0  0  0  0
    3.1108   11.2627    4.7952 H   0  0  0  0  0  0  0  0  0  0  0  0
    3.0020   10.7695    2.0002 C   0  0  0  0  0  0  0  0  0  0  0  0
    2.9417    9.1803    3.4511 H   0  0  0  0  0  0  0  0  0  0  0  0
    4.5435    9.4911    2.7630 H   0  0  0  0  0  0  0  0  0  0  0  0
    2.6883    9.8747    0.8076 C   0  0  0  0  0  0  0  0  0  0  0  0
    3.6968   11.5532    1.6934 H   0  0  0  0  0  0  0  0  0  0  0  0
    2.0845   11.2467    2.3540 H   0  0  0  0  0  0  0  0  0  0  0  0
    3.6007    9.4131    0.4369 H   0  0  0  0  0  0  0  0  0  0  0  0
    2.2431   10.4553    0.0036 H   0  0  0  0  0  0  0  0  0  0  0  0
    1.9915    9.0879    1.0908 H   0  0  0  0  0  0  0  0  0  0  0  0
    5.6037    9.7034    4.8123 H   0  0  0  0  0  0  0  0  0  0  0  0
  1  3  1  0  0  0  0
  1  4  1  0  0  0  0
  1  5  1  0  0  0  0
  2  6  1  0  0  0  0
  2  7  1  0  0  0  0
  2  8  1  0  0  0  0
  1  9  1  0  0  0  0
  2 10  1  0  0  0  0
  9 11  1  0  0  0  0
 10 11  1  0  0  0  0
  9 12  2  0  0  0  0
  9 13  2  0  0  0  0
 10 14  2  0  0  0  0
 10 15  2  0  0  0  0
 16 18  1  0  0  0  0
 16 19  1  0  0  0  0
 16 20  1  0  0  0  0
 17 21  1  0  0  0  0
 17 22  1  0  0  0  0
 17 23  1  0  0  0  0
 16 24  1  0  0  0  0
 17 25  1  0  0  0  0
 24 26  1  0  0  0  0
 25 26  1  0  0  0  0
 24 27  2  0  0  0  0
 24 28  2  0  0  0  0
 25 29  2  0  0  0  0
 25 30  2  0  0  0  0
 31 32  2  0  0  0  0
 31 33  1  0  0  0  0
 31 34  1  0  0  0  0
 32 35  1  0  0  0  0
 32 36  1  0  0  0  0
 35 37  4  0  0  0  0
 37 38  4  0  0  0  0
 38 39  4  0  0  0  0
 35 40  4  0  0  0  0
 39 41  4  0  0  0  0
 40 41  4  0  0  0  0
 40 42  1  0  0  0  0
 41 43  1  0  0  0  0
 38 44  1  0  0  0  0
 37 45  1  0  0  0  0
 39 46  1  0  0  0  0
 46 47  1  0  0  0  0
 46 48  1  0  0  0  0
 46 49  1  0  0  0  0
 47 50  1  0  0  0  0
 47 51  1  0  0  0  0
 51 52  1  0  0  0  0
 51 53  1  0  0  0  0
 51 54  1  0  0  0  0
 50 55  1  0  0  0  0
 52 55  1  0  0  0  0
 52 56  1  0  0  0  0
 52 57  1  0  0  0  0
 50 58  1  0  0  0  0
 50 59  1  0  0  0  0
 55 60  1  0  0  0  0
 60 61  1  0  0  0  0
 60 62  1  0  0  0  0
 60 63  1  0  0  0  0
 61 64  1  0  0  0  0
 61 65  1  0  0  0  0
 61 66  1  0  0  0  0
 64 67  1  0  0  0  0
 64 68  1  0  0  0  0
 64 69  1  0  0  0  0
 67 70  1  0  0  0  0
 67 71  1  0  0  0  0
 67 72  1  0  0  0  0
 55 73  1  0  0  0  0
 74 75  2  0  0  0  0
 74 76  1  0  0  0  0
 74 77  1  0  0  0  0
 75 78  1  0  0  0  0
 75 79  1  0  0  0  0
 78 80  4  0  0  0  0
 80 81  4  0  0  0  0
 81 82  4  0  0  0  0
 78 83  4  0  0  0  0
 82 84  4  0  0  0  0
 83 84  4  0  0  0  0
 83 85  1  0  0  0  0
 84 86  1  0  0  0  0
 81 87  1  0  0  0  0
 80 88  1  0  0  0  0
 82 89  1  0  0  0  0
 89 90  1  0  0  0  0
 89 91  1  0  0  0  0
 89 92  1  0  0  0  0
 90 93  1  0  0  0  0
 90 94  1  0  0  0  0
 94 95  1  0  0  0  0
 94 96  1  0  0  0  0
 94 97  1  0  0  0  0
 93 98  1  0  0  0  0
 95 98  1  0  0  0  0
 95 99  1  0  0  0  0
 95100  1  0  0  0  0
 93101  1  0  0  0  0
 93102  1  0  0  0  0
 98103  1  0  0  0  0
103104  1  0  0  0  0
103105  1  0  0  0  0
103106  1  0  0  0  0
104107  1  0  0  0  0
104108  1  0  0  0  0
104109  1  0  0  0  0
107110  1  0  0  0  0
107111  1  0  0  0  0
107112  1  0  0  0  0
110113  1  0  0  0  0
110114  1  0  0  0  0
110115  1  0  0  0  0
 98116  1  0  0  0  0
M  END
