 xtb: 6.7.1 (edcfbbe)
          10212513453D

116116  0     0  0            999 V2000
    0.7438    5.1669    5.2973 C   0  0  0  0  0  0  0  0  0  0  0  0
    4.1950    3.2475    8.3545 C   0  0  0  0  0  0  0  0  0  0  0  0
   -0.0759    4.7512    4.3393 F   0  0  0  0  0  0  0  0  0  0  0  0
    0.0651    5.2452    6.4390 F   0  0  0  0  0  0  0  0  0  0  0  0
    1.1278    6.4168    4.9920 F   0  0  0  0  0  0  0  0  0  0  0  0
    5.2496    4.0661    8.1995 F   0  0  0  0  0  0  0  0  0  0  0  0
    4.2991    2.6779    9.5498 F   0  0  0  0  0  0  0  0  0  0  0  0
    4.2962    2.3074    7.4210 F   0  0  0  0  0  0  0  0  0  0  0  0
    2.3153    4.1476    5.4746 S   0  0  0  0  0  0  0  0  0  0  0  0
    2.6678    4.3224    8.1319 S   0  0  0  0  0  0  0  0  0  0  0  0
    2.9745    4.9123    6.7001 N   0  0  0  0  0  0  0  0  0  0  0  0
    1.9813    2.7882    5.6977 O   0  0  0  0  0  0  0  0  0  0  0  0
    3.0478    4.4729    4.2807 O   0  0  0  0  0  0  0  0  0  0  0  0
    2.8828    5.3603    9.1184 O   0  0  0  0  0  0  0  0  0  0  0  0
    1.4963    3.5413    8.2729 O   0  0  0  0  0  0  0  0  0  0  0  0
    9.4909    8.4208    6.8081 C   0  0  0  0  0  0  0  0  0  0  0  0
    5.9630    9.9761    4.8128 C   0  0  0  0  0  0  0  0  0  0  0  0
   10.5879    8.0761    6.1293 F   0  0  0  0  0  0  0  0  0  0  0  0
    9.7593    8.3110    8.1030 F   0  0  0  0  0  0  0  0  0  0  0  0
    8.5563    7.4964    6.5147 F   0  0  0  0  0  0  0  0  0  0  0  0
    4.6265    9.8155    4.7070 F   0  0  0  0  0  0  0  0  0  0  0  0
    6.3624   10.5456    3.6891 F   0  0  0  0  0  0  0  0  0  0  0  0
    6.4519    8.7177    4.8432 F   0  0  0  0  0  0  0  0  0  0  0  0
    8.8617   10.1497    6.3672 S   0  0  0  0  0  0  0  0  0  0  0  0
    6.3579   10.9078    6.4384 S   0  0  0  0  0  0  0  0  0  0  0  0
    7.4577   10.0041    7.0930 N   0  0  0  0  0  0  0  0  0  0  0  0
    9.7990   11.0393    6.9510 O   0  0  0  0  0  0  0  0  0  0  0  0
    8.7167   10.1251    4.9418 O   0  0  0  0  0  0  0  0  0  0  0  0
    5.1143   10.7601    7.1438 O   0  0  0  0  0  0  0  0  0  0  0  0
    6.7606   12.2087    6.0379 O   0  0  0  0  0  0  0  0  0  0  0  0
   11.1494    3.6189   11.3382 C   0  0  0  0  0  0  0  0  0  0  0  0
   10.7488    4.8579   11.0785 C   0  0  0  0  0  0  0  0  0  0  0  0
   12.1951    3.3737   11.4132 H   0  0  0  0  0  0  0  0  0  0  0  0
   10.4642    2.8032   11.4920 H   0  0  0  0  0  0  0  0  0  0  0  0
    9.3731    5.3260   10.9581 C   0  0  0  0  0  0  0  0  0  0  0  0
   11.4946    5.6317   10.9437 H   0  0  0  0  0  0  0  0  0  0  0  0
    9.1403    6.6890   10.7617 C   0  0  0  0  0  0  0  0  0  0  0  0
    7.8584    7.1864   10.6459 C   0  0  0  0  0  0  0  0  0  0  0  0
    6.7641    6.3330   10.7196 C   0  0  0  0  0  0  0  0  0  0  0  0
    8.2675    4.4773   11.0288 C   0  0  0  0  0  0  0  0  0  0  0  0
    6.9847    4.9745   10.9099 C   0  0  0  0  0  0  0  0  0  0  0  0
    8.4086    3.4174   11.1728 H   0  0  0  0  0  0  0  0  0  0  0  0
    6.1421    4.3002   10.9693 H   0  0  0  0  0  0  0  0  0  0  0  0
    7.6977    8.2407   10.4856 H   0  0  0  0  0  0  0  0  0  0  0  0
    9.9775    7.3677   10.6964 H   0  0  0  0  0  0  0  0  0  0  0  0
    5.3632    6.8766   10.6139 C   0  0  0  0  0  0  0  0  0  0  0  0
    5.3278    7.9979    9.6839 N   0  0  0  0  0  0  0  0  0  0  0  0
    5.0657    7.2632   11.5950 H   0  0  0  0  0  0  0  0  0  0  0  0
    4.6711    6.0676   10.3409 H   0  0  0  0  0  0  0  0  0  0  0  0
    4.1063    8.7133    9.6064 C   0  0  0  0  0  0  0  0  0  0  0  0
    5.6400    7.6562    8.2986 C   0  0  0  0  0  0  0  0  0  0  0  0
    4.2981    7.7141    7.5253 C   0  0  0  0  0  0  0  0  0  0  0  0
    6.0994    6.6694    8.2567 H   0  0  0  0  0  0  0  0  0  0  0  0
    6.3360    8.4017    7.9037 H   0  0  0  0  0  0  0  0  0  0  0  0
    3.2928    7.9592    8.5808 N   0  0  0  0  0  0  0  0  0  0  0  0
    4.0513    6.7862    7.0100 H   0  0  0  0  0  0  0  0  0  0  0  0
    4.2937    8.5597    6.8409 H   0  0  0  0  0  0  0  0  0  0  0  0
    4.3018    9.7066    9.1883 H   0  0  0  0  0  0  0  0  0  0  0  0
    3.5834    8.7706   10.5610 H   0  0  0  0  0  0  0  0  0  0  0  0
    2.0072    8.5306    8.1259 C   0  0  0  0  0  0  0  0  0  0  0  0
    2.0752    9.9921    7.6796 C   0  0  0  0  0  0  0  0  0  0  0  0
    1.2951    8.4284    8.9493 H   0  0  0  0  0  0  0  0  0  0  0  0
    1.6658    7.8943    7.3066 H   0  0  0  0  0  0  0  0  0  0  0  0
    1.6869   10.9843    8.7777 C   0  0  0  0  0  0  0  0  0  0  0  0
    1.3957   10.1284    6.8379 H   0  0  0  0  0  0  0  0  0  0  0  0
    3.0746   10.2429    7.3260 H   0  0  0  0  0  0  0  0  0  0  0  0
    1.9411   12.4127    8.3127 C   0  0  0  0  0  0  0  0  0  0  0  0
    2.2707   10.7980    9.6799 H   0  0  0  0  0  0  0  0  0  0  0  0
    0.6314   10.8588    9.0323 H   0  0  0  0  0  0  0  0  0  0  0  0
    1.6942   13.1229    9.0975 H   0  0  0  0  0  0  0  0  0  0  0  0
    1.3372   12.6422    7.4383 H   0  0  0  0  0  0  0  0  0  0  0  0
    2.9886   12.5318    8.0470 H   0  0  0  0  0  0  0  0  0  0  0  0
    3.0811    7.0102    8.9646 H   0  0  0  0  0  0  0  0  0  0  0  0
    8.9951   10.4260    1.5310 C   0  0  0  0  0  0  0  0  0  0  0  0
    9.0195    9.2827    0.8542 C   0  0  0  0  0  0  0  0  0  0  0  0
    9.0807   11.3691    1.0187 H   0  0  0  0  0  0  0  0  0  0  0  0
    8.8861   10.4788    2.6006 H   0  0  0  0  0  0  0  0  0  0  0  0
    8.9004    7.9500    1.4316 C   0  0  0  0  0  0  0  0  0  0  0  0
    9.1191    9.2989   -0.2253 H   0  0  0  0  0  0  0  0  0  0  0  0
    8.9199    7.7286    2.8112 C   0  0  0  0  0  0  0  0  0  0  0  0
    8.7657    6.4529    3.3199 C   0  0  0  0  0  0  0  0  0  0  0  0
    8.5801    5.3543    2.4758 C   0  0  0  0  0  0  0  0  0  0  0  0
    8.7623    6.8435    0.5909 C   0  0  0  0  0  0  0  0  0  0  0  0
    8.5928    5.5700    1.1031 C   0  0  0  0  0  0  0  0  0  0  0  0
    8.7749    6.9864   -0.4801 H   0  0  0  0  0  0  0  0  0  0  0  0
    8.4779    4.7323    0.4290 H   0  0  0  0  0  0  0  0  0  0  0  0
    8.8212    6.3023    4.3874 H   0  0  0  0  0  0  0  0  0  0  0  0
    9.0524    8.5552    3.4893 H   0  0  0  0  0  0  0  0  0  0  0  0
    8.2891    3.9869    3.0445 C   0  0  0  0  0  0  0  0  0  0  0  0
    6.9624    3.8467    3.6521 N   0  0  0  0  0  0  0  0  0  0  0  0
    9.0267    3.7188    3.8019 H   0  0  0  0  0  0  0  0  0  0  0  0
    8.3478    3.2417    2.2453 H   0  0  0  0  0  0  0  0  0  0  0  0
    5.9033    4.5094    2.9781 C   0  0  0  0  0  0  0  0  0  0  0  0
    6.8020    4.2298    5.0492 C   0  0  0  0  0  0  0  0  0  0  0  0
    5.9625    5.5314    5.0498 C   0  0  0  0  0  0  0  0  0  0  0  0
    7.7682    4.3628    5.5332 H   0  0  0  0  0  0  0  0  0  0  0  0
    6.2613    3.4361    5.5699 H   0  0  0  0  0  0  0  0  0  0  0  0
    5.8467    5.8837    3.6171 N   0  0  0  0  0  0  0  0  0  0  0  0
    6.4338    6.3393    5.6052 H   0  0  0  0  0  0  0  0  0  0  0  0
    4.9598    5.3375    5.4320 H   0  0  0  0  0  0  0  0  0  0  0  0
    4.9394    4.0396    3.2047 H   0  0  0  0  0  0  0  0  0  0  0  0
    6.0635    4.5691    1.9035 H   0  0  0  0  0  0  0  0  0  0  0  0
    4.6970    6.7387    3.2563 C   0  0  0  0  0  0  0  0  0  0  0  0
    5.0133    7.6815    2.0994 C   0  0  0  0  0  0  0  0  0  0  0  0
    4.4342    7.3294    4.1336 H   0  0  0  0  0  0  0  0  0  0  0  0
    3.8492    6.0892    3.0337 H   0  0  0  0  0  0  0  0  0  0  0  0
    5.1547    7.0089    0.7355 C   0  0  0  0  0  0  0  0  0  0  0  0
    5.9277    8.2398    2.3145 H   0  0  0  0  0  0  0  0  0  0  0  0
    4.1985    8.4050    2.0439 H   0  0  0  0  0  0  0  0  0  0  0  0
    5.3080    8.0540   -0.3639 C   0  0  0  0  0  0  0  0  0  0  0  0
    4.2750    6.3931    0.5388 H   0  0  0  0  0  0  0  0  0  0  0  0
    6.0363    6.3663    0.7202 H   0  0  0  0  0  0  0  0  0  0  0  0
    6.1775    8.6777   -0.1700 H   0  0  0  0  0  0  0  0  0  0  0  0
    4.4310    8.6944   -0.4094 H   0  0  0  0  0  0  0  0  0  0  0  0
    5.4335    7.5748   -1.3313 H   0  0  0  0  0  0  0  0  0  0  0  0
    6.7255    6.3743    3.3568 H   0  0  0  0  0  0  0  0  0  0  0  0
  1  3  1  0  0  0  0
  1  4  1  0  0  0  0
  1  5  1  0  0  0  0
  2  6  1  0  0  0  0
  2  7  1  0  0  0  0
  2  8  1  0  0  0  0
  1  9  1  0  0  0  0
  2 10  1  0  0  0  0
  9 11  1  0  0  0  0
 10 11  1  0  0  0  0
  9 12  2  0  0  0  0
  9 13  2  0  0  0  0
 10 14  2  0  0  0  0
 10 15  2  0  0  0  0
 16 18  1  0  0  0  0
 16 19  1  0  0  0  0
 16 20  1  0  0  0  0
 17 21  1  0  0  0  0
 17 22  1  0  0  0  0
 17 23  1  0  0  0  0
 16 24  1  0  0  0  0
 17 25  1  0  0  0  0
 24 26  1  0  0  0  0
 25 26  1  0  0  0  0
 24 27  2  0  0  0  0
 24 28  2  0  0  0  0
 25 29  2  0  0  0  0
 25 30  2  0  0  0  0
 31 32  2  0  0  0  0
 31 33  1  0  0  0  0
 31 34  1  0  0  0  0
 32 35  1  0  0  0  0
 32 36  1  0  0  0  0
 35 37  4  0  0  0  0
 37 38  4  0  0  0  0
 38 39  4  0  0  0  0
 35 40  4  0  0  0  0
 39 41  4  0  0  0  0
 40 41  4  0  0  0  0
 40 42  1  0  0  0  0
 41 43  1  0  0  0  0
 38 44  1  0  0  0  0
 37 45  1  0  0  0  0
 39 46  1  0  0  0  0
 46 47  1  0  0  0  0
 46 48  1  0  0  0  0
 46 49  1  0  0  0  0
 47 50  1  0  0  0  0
 47 51  1  0  0  0  0
 51 52  1  0  0  0  0
 51 53  1  0  0  0  0
 51 54  1  0  0  0  0
 50 55  1  0  0  0  0
 52 55  1  0  0  0  0
 52 56  1  0  0  0  0
 52 57  1  0  0  0  0
 50 58  1  0  0  0  0
 50 59  1  0  0  0  0
 55 60  1  0  0  0  0
 60 61  1  0  0  0  0
 60 62  1  0  0  0  0
 60 63  1  0  0  0  0
 61 64  1  0  0  0  0
 61 65  1  0  0  0  0
 61 66  1  0  0  0  0
 64 67  1  0  0  0  0
 64 68  1  0  0  0  0
 64 69  1  0  0  0  0
 67 70  1  0  0  0  0
 67 71  1  0  0  0  0
 67 72  1  0  0  0  0
 55 73  1  0  0  0  0
 74 75  2  0  0  0  0
 74 76  1  0  0  0  0
 74 77  1  0  0  0  0
 75 78  1  0  0  0  0
 75 79  1  0  0  0  0
 78 80  4  0  0  0  0
 80 81  4  0  0  0  0
 81 82  4  0  0  0  0
 78 83  4  0  0  0  0
 82 84  4  0  0  0  0
 83 84  4  0  0  0  0
 83 85  1  0  0  0  0
 84 86  1  0  0  0  0
 81 87  1  0  0  0  0
 80 88  1  0  0  0  0
 82 89  1  0  0  0  0
 89 90  1  0  0  0  0
 89 91  1  0  0  0  0
 89 92  1  0  0  0  0
 90 93  1  0  0  0  0
 90 94  1  0  0  0  0
 94 95  1  0  0  0  0
 94 96  1  0  0  0  0
 94 97  1  0  0  0  0
 93 98  1  0  0  0  0
 95 98  1  0  0  0  0
 95 99  1  0  0  0  0
 95100  1  0  0  0  0
 93101  1  0  0  0  0
 93102  1  0  0  0  0
 98103  1  0  0  0  0
103104  1  0  0  0  0
103105  1  0  0  0  0
103106  1  0  0  0  0
104107  1  0  0  0  0
104108  1  0  0  0  0
104109  1  0  0  0  0
107110  1  0  0  0  0
107111  1  0  0  0  0
107112  1  0  0  0  0
110113  1  0  0  0  0
110114  1  0  0  0  0
110115  1  0  0  0  0
 98116  1  0  0  0  0
M  END
