 xtb: 6.7.1 (edcfbbe)
          10212513513D

116116  0     0  0            999 V2000
    3.8708   -0.9790    1.8228 C   0  0  0  0  0  0  0  0  0  0  0  0
    1.8335    2.1845   -0.8180 C   0  0  0  0  0  0  0  0  0  0  0  0
    4.9728   -1.2862    1.1515 F   0  0  0  0  0  0  0  0  0  0  0  0
    3.7943   -1.8260    2.8548 F   0  0  0  0  0  0  0  0  0  0  0  0
    2.8086   -1.2134    1.0578 F   0  0  0  0  0  0  0  0  0  0  0  0
    1.2571    3.2558   -0.2731 F   0  0  0  0  0  0  0  0  0  0  0  0
    2.0444    2.4560   -2.1076 F   0  0  0  0  0  0  0  0  0  0  0  0
    0.9755    1.1740   -0.7449 F   0  0  0  0  0  0  0  0  0  0  0  0
    3.8678    0.8071    2.4420 S   0  0  0  0  0  0  0  0  0  0  0  0
    3.4370    1.7998    0.0756 S   0  0  0  0  0  0  0  0  0  0  0  0
    2.8390    1.5575    1.5263 N   0  0  0  0  0  0  0  0  0  0  0  0
    3.4589    0.7447    3.8049 O   0  0  0  0  0  0  0  0  0  0  0  0
    5.2168    1.2911    2.2096 O   0  0  0  0  0  0  0  0  0  0  0  0
    4.2072    3.0094   -0.0341 O   0  0  0  0  0  0  0  0  0  0  0  0
    3.9988    0.6320   -0.5191 O   0  0  0  0  0  0  0  0  0  0  0  0
    4.3863    8.8216    3.8188 C   0  0  0  0  0  0  0  0  0  0  0  0
    8.8696    8.3357    5.3933 C   0  0  0  0  0  0  0  0  0  0  0  0
    3.4654    8.1250    4.4997 F   0  0  0  0  0  0  0  0  0  0  0  0
    3.8011    9.9168    3.3494 F   0  0  0  0  0  0  0  0  0  0  0  0
    4.7803    8.0799    2.7939 F   0  0  0  0  0  0  0  0  0  0  0  0
    8.4761    9.1114    6.4161 F   0  0  0  0  0  0  0  0  0  0  0  0
    9.8872    7.5987    5.8478 F   0  0  0  0  0  0  0  0  0  0  0  0
    9.3243    9.0893    4.4155 F   0  0  0  0  0  0  0  0  0  0  0  0
    5.7477    9.2635    5.0355 S   0  0  0  0  0  0  0  0  0  0  0  0
    7.4396    7.1830    4.9523 S   0  0  0  0  0  0  0  0  0  0  0  0
    6.1961    7.8763    5.6551 N   0  0  0  0  0  0  0  0  0  0  0  0
    6.7870    9.9326    4.3380 O   0  0  0  0  0  0  0  0  0  0  0  0
    5.0246    9.9564    6.0639 O   0  0  0  0  0  0  0  0  0  0  0  0
    7.7415    5.9741    5.6582 O   0  0  0  0  0  0  0  0  0  0  0  0
    7.3197    7.0991    3.5341 O   0  0  0  0  0  0  0  0  0  0  0  0
    4.2221   -1.5910    6.2740 C   0  0  0  0  0  0  0  0  0  0  0  0
    5.2111   -1.8297    5.4235 C   0  0  0  0  0  0  0  0  0  0  0  0
    3.5601   -2.3757    6.5972 H   0  0  0  0  0  0  0  0  0  0  0  0
    4.0136   -0.6046    6.6491 H   0  0  0  0  0  0  0  0  0  0  0  0
    6.1486   -0.8371    4.9129 C   0  0  0  0  0  0  0  0  0  0  0  0
    5.3468   -2.8300    5.0321 H   0  0  0  0  0  0  0  0  0  0  0  0
    6.8433   -1.0917    3.7314 C   0  0  0  0  0  0  0  0  0  0  0  0
    7.7446   -0.1783    3.2224 C   0  0  0  0  0  0  0  0  0  0  0  0
    8.0060    1.0089    3.8944 C   0  0  0  0  0  0  0  0  0  0  0  0
    6.4107    0.3568    5.5820 C   0  0  0  0  0  0  0  0  0  0  0  0
    7.3318    1.2567    5.0868 C   0  0  0  0  0  0  0  0  0  0  0  0
    5.9091    0.5672    6.5136 H   0  0  0  0  0  0  0  0  0  0  0  0
    7.5554    2.1523    5.6523 H   0  0  0  0  0  0  0  0  0  0  0  0
    8.2695   -0.4047    2.3055 H   0  0  0  0  0  0  0  0  0  0  0  0
    6.6696   -2.0178    3.2033 H   0  0  0  0  0  0  0  0  0  0  0  0
    8.9942    2.0124    3.3565 C   0  0  0  0  0  0  0  0  0  0  0  0
    8.4412    3.0414    2.4836 N   0  0  0  0  0  0  0  0  0  0  0  0
    9.7703    1.5058    2.7789 H   0  0  0  0  0  0  0  0  0  0  0  0
    9.4739    2.5396    4.1868 H   0  0  0  0  0  0  0  0  0  0  0  0
    7.3559    3.8323    3.0284 C   0  0  0  0  0  0  0  0  0  0  0  0
    8.0399    2.6135    1.1464 C   0  0  0  0  0  0  0  0  0  0  0  0
    7.0020    3.6561    0.7641 C   0  0  0  0  0  0  0  0  0  0  0  0
    7.5726    1.6199    1.1487 H   0  0  0  0  0  0  0  0  0  0  0  0
    8.9078    2.6109    0.4839 H   0  0  0  0  0  0  0  0  0  0  0  0
    6.2568    3.7779    2.0333 N   0  0  0  0  0  0  0  0  0  0  0  0
    6.3298    3.3452   -0.0334 H   0  0  0  0  0  0  0  0  0  0  0  0
    7.4677    4.6179    0.5396 H   0  0  0  0  0  0  0  0  0  0  0  0
    7.6757    4.8788    3.1254 H   0  0  0  0  0  0  0  0  0  0  0  0
    7.0206    3.4724    4.0025 H   0  0  0  0  0  0  0  0  0  0  0  0
    5.2811    4.8854    2.0978 C   0  0  0  0  0  0  0  0  0  0  0  0
    3.9782    4.4874    2.7907 C   0  0  0  0  0  0  0  0  0  0  0  0
    5.0279    5.1547    1.0714 H   0  0  0  0  0  0  0  0  0  0  0  0
    5.7608    5.7408    2.5777 H   0  0  0  0  0  0  0  0  0  0  0  0
    4.1059    3.9084    4.1989 C   0  0  0  0  0  0  0  0  0  0  0  0
    3.4742    3.7486    2.1658 H   0  0  0  0  0  0  0  0  0  0  0  0
    3.3474    5.3770    2.8277 H   0  0  0  0  0  0  0  0  0  0  0  0
    4.5384    4.9333    5.2419 C   0  0  0  0  0  0  0  0  0  0  0  0
    4.7834    3.0543    4.2009 H   0  0  0  0  0  0  0  0  0  0  0  0
    3.1291    3.5100    4.4772 H   0  0  0  0  0  0  0  0  0  0  0  0
    4.5813    4.4591    6.2194 H   0  0  0  0  0  0  0  0  0  0  0  0
    3.8246    5.7524    5.2861 H   0  0  0  0  0  0  0  0  0  0  0  0
    5.5184    5.3483    5.0182 H   0  0  0  0  0  0  0  0  0  0  0  0
    5.7476    2.8659    2.1362 H   0  0  0  0  0  0  0  0  0  0  0  0
    9.1708   15.0501   11.1408 C   0  0  0  0  0  0  0  0  0  0  0  0
    8.9327   14.3169   10.0600 C   0  0  0  0  0  0  0  0  0  0  0  0
   10.0252   15.7022   11.1969 H   0  0  0  0  0  0  0  0  0  0  0  0
    8.5294   15.0409   12.0056 H   0  0  0  0  0  0  0  0  0  0  0  0
    7.8101   13.4091    9.8556 C   0  0  0  0  0  0  0  0  0  0  0  0
    9.6102   14.3891    9.2181 H   0  0  0  0  0  0  0  0  0  0  0  0
    7.5985   12.8701    8.5853 C   0  0  0  0  0  0  0  0  0  0  0  0
    6.5371   12.0215    8.3358 C   0  0  0  0  0  0  0  0  0  0  0  0
    5.6539   11.6861    9.3550 C   0  0  0  0  0  0  0  0  0  0  0  0
    6.9273   13.0503   10.8763 C   0  0  0  0  0  0  0  0  0  0  0  0
    5.8679   12.2021   10.6283 C   0  0  0  0  0  0  0  0  0  0  0  0
    7.0726   13.4366   11.8730 H   0  0  0  0  0  0  0  0  0  0  0  0
    5.1918   11.9328   11.4264 H   0  0  0  0  0  0  0  0  0  0  0  0
    6.3832   11.6209    7.3436 H   0  0  0  0  0  0  0  0  0  0  0  0
    8.2721   13.1272    7.7809 H   0  0  0  0  0  0  0  0  0  0  0  0
    4.5002   10.7602    9.0891 C   0  0  0  0  0  0  0  0  0  0  0  0
    4.7153    9.4793    9.7768 N   0  0  0  0  0  0  0  0  0  0  0  0
    4.3763   10.6353    8.0086 H   0  0  0  0  0  0  0  0  0  0  0  0
    3.5862   11.1851    9.5115 H   0  0  0  0  0  0  0  0  0  0  0  0
    5.8805    8.7728    9.3719 C   0  0  0  0  0  0  0  0  0  0  0  0
    3.6450    8.5201    9.5976 C   0  0  0  0  0  0  0  0  0  0  0  0
    3.9908    7.7938    8.2838 C   0  0  0  0  0  0  0  0  0  0  0  0
    2.6759    9.0118    9.5612 H   0  0  0  0  0  0  0  0  0  0  0  0
    3.6562    7.8218   10.4396 H   0  0  0  0  0  0  0  0  0  0  0  0
    5.4750    7.8078    8.2622 N   0  0  0  0  0  0  0  0  0  0  0  0
    3.6274    8.3612    7.4270 H   0  0  0  0  0  0  0  0  0  0  0  0
    3.6063    6.7800    8.2352 H   0  0  0  0  0  0  0  0  0  0  0  0
    6.2482    8.1624   10.2026 H   0  0  0  0  0  0  0  0  0  0  0  0
    6.6661    9.4462    9.0288 H   0  0  0  0  0  0  0  0  0  0  0  0
    6.1593    6.4950    8.3387 C   0  0  0  0  0  0  0  0  0  0  0  0
    5.6668    5.5489    9.4280 C   0  0  0  0  0  0  0  0  0  0  0  0
    7.2213    6.7013    8.4893 H   0  0  0  0  0  0  0  0  0  0  0  0
    6.0645    6.0281    7.3587 H   0  0  0  0  0  0  0  0  0  0  0  0
    6.6351    4.3710    9.5837 C   0  0  0  0  0  0  0  0  0  0  0  0
    4.6807    5.1542    9.1802 H   0  0  0  0  0  0  0  0  0  0  0  0
    5.5928    6.0673   10.3861 H   0  0  0  0  0  0  0  0  0  0  0  0
    6.7652    3.5324    8.3169 C   0  0  0  0  0  0  0  0  0  0  0  0
    6.2759    3.7384   10.3976 H   0  0  0  0  0  0  0  0  0  0  0  0
    7.6186    4.7488    9.8680 H   0  0  0  0  0  0  0  0  0  0  0  0
    7.3978    2.6703    8.5116 H   0  0  0  0  0  0  0  0  0  0  0  0
    7.2108    4.1065    7.5083 H   0  0  0  0  0  0  0  0  0  0  0  0
    5.7913    3.1694    7.9966 H   0  0  0  0  0  0  0  0  0  0  0  0
    5.7629    8.1672    7.3279 H   0  0  0  0  0  0  0  0  0  0  0  0
  1  3  1  0  0  0  0
  1  4  1  0  0  0  0
  1  5  1  0  0  0  0
  2  6  1  0  0  0  0
  2  7  1  0  0  0  0
  2  8  1  0  0  0  0
  1  9  1  0  0  0  0
  2 10  1  0  0  0  0
  9 11  1  0  0  0  0
 10 11  1  0  0  0  0
  9 12  2  0  0  0  0
  9 13  2  0  0  0  0
 10 14  2  0  0  0  0
 10 15  2  0  0  0  0
 16 18  1  0  0  0  0
 16 19  1  0  0  0  0
 16 20  1  0  0  0  0
 17 21  1  0  0  0  0
 17 22  1  0  0  0  0
 17 23  1  0  0  0  0
 16 24  1  0  0  0  0
 17 25  1  0  0  0  0
 24 26  1  0  0  0  0
 25 26  1  0  0  0  0
 24 27  2  0  0  0  0
 24 28  2  0  0  0  0
 25 29  2  0  0  0  0
 25 30  2  0  0  0  0
 31 32  2  0  0  0  0
 31 33  1  0  0  0  0
 31 34  1  0  0  0  0
 32 35  1  0  0  0  0
 32 36  1  0  0  0  0
 35 37  4  0  0  0  0
 37 38  4  0  0  0  0
 38 39  4  0  0  0  0
 35 40  4  0  0  0  0
 39 41  4  0  0  0  0
 40 41  4  0  0  0  0
 40 42  1  0  0  0  0
 41 43  1  0  0  0  0
 38 44  1  0  0  0  0
 37 45  1  0  0  0  0
 39 46  1  0  0  0  0
 46 47  1  0  0  0  0
 46 48  1  0  0  0  0
 46 49  1  0  0  0  0
 47 50  1  0  0  0  0
 47 51  1  0  0  0  0
 51 52  1  0  0  0  0
 51 53  1  0  0  0  0
 51 54  1  0  0  0  0
 50 55  1  0  0  0  0
 52 55  1  0  0  0  0
 52 56  1  0  0  0  0
 52 57  1  0  0  0  0
 50 58  1  0  0  0  0
 50 59  1  0  0  0  0
 55 60  1  0  0  0  0
 60 61  1  0  0  0  0
 60 62  1  0  0  0  0
 60 63  1  0  0  0  0
 61 64  1  0  0  0  0
 61 65  1  0  0  0  0
 61 66  1  0  0  0  0
 64 67  1  0  0  0  0
 64 68  1  0  0  0  0
 64 69  1  0  0  0  0
 67 70  1  0  0  0  0
 67 71  1  0  0  0  0
 67 72  1  0  0  0  0
 55 73  1  0  0  0  0
 74 75  2  0  0  0  0
 74 76  1  0  0  0  0
 74 77  1  0  0  0  0
 75 78  1  0  0  0  0
 75 79  1  0  0  0  0
 78 80  4  0  0  0  0
 80 81  4  0  0  0  0
 81 82  4  0  0  0  0
 78 83  4  0  0  0  0
 82 84  4  0  0  0  0
 83 84  4  0  0  0  0
 83 85  1  0  0  0  0
 84 86  1  0  0  0  0
 81 87  1  0  0  0  0
 80 88  1  0  0  0  0
 82 89  1  0  0  0  0
 89 90  1  0  0  0  0
 89 91  1  0  0  0  0
 89 92  1  0  0  0  0
 90 93  1  0  0  0  0
 90 94  1  0  0  0  0
 94 95  1  0  0  0  0
 94 96  1  0  0  0  0
 94 97  1  0  0  0  0
 93 98  1  0  0  0  0
 95 98  1  0  0  0  0
 95 99  1  0  0  0  0
 95100  1  0  0  0  0
 93101  1  0  0  0  0
 93102  1  0  0  0  0
 98103  1  0  0  0  0
103104  1  0  0  0  0
103105  1  0  0  0  0
103106  1  0  0  0  0
104107  1  0  0  0  0
104108  1  0  0  0  0
104109  1  0  0  0  0
107110  1  0  0  0  0
107111  1  0  0  0  0
107112  1  0  0  0  0
110113  1  0  0  0  0
110114  1  0  0  0  0
110115  1  0  0  0  0
 98116  1  0  0  0  0
M  END
