 xtb: 6.7.1 (edcfbbe)
          10212513333D

116116  0     0  0            999 V2000
    7.4004   -0.4381    4.8323 C   0  0  0  0  0  0  0  0  0  0  0  0
    4.7995    1.3825    8.4846 C   0  0  0  0  0  0  0  0  0  0  0  0
    6.8850   -1.5475    5.3537 F   0  0  0  0  0  0  0  0  0  0  0  0
    7.6270   -0.6785    3.5338 F   0  0  0  0  0  0  0  0  0  0  0  0
    8.5805   -0.1997    5.3874 F   0  0  0  0  0  0  0  0  0  0  0  0
    5.1575    2.6107    8.0811 F   0  0  0  0  0  0  0  0  0  0  0  0
    3.4665    1.3255    8.4005 F   0  0  0  0  0  0  0  0  0  0  0  0
    5.1379    1.2639    9.7635 F   0  0  0  0  0  0  0  0  0  0  0  0
    6.1975    1.0119    4.9786 S   0  0  0  0  0  0  0  0  0  0  0  0
    5.5732    0.0605    7.3741 S   0  0  0  0  0  0  0  0  0  0  0  0
    5.0560    0.5542    5.9590 N   0  0  0  0  0  0  0  0  0  0  0  0
    6.9797    2.1313    5.4335 O   0  0  0  0  0  0  0  0  0  0  0  0
    5.6447    1.1760    3.6650 O   0  0  0  0  0  0  0  0  0  0  0  0
    4.9629   -1.1445    7.8130 O   0  0  0  0  0  0  0  0  0  0  0  0
    6.9883    0.2230    7.4986 O   0  0  0  0  0  0  0  0  0  0  0  0
    0.8217    5.4236    7.4868 C   0  0  0  0  0  0  0  0  0  0  0  0
    3.3054    9.1966    5.5473 C   0  0  0  0  0  0  0  0  0  0  0  0
    1.7236    4.4694    7.7448 F   0  0  0  0  0  0  0  0  0  0  0  0
    0.4653    5.9904    8.6253 F   0  0  0  0  0  0  0  0  0  0  0  0
   -0.2493    4.8135    6.9646 F   0  0  0  0  0  0  0  0  0  0  0  0
    4.3073    9.9504    5.0731 F   0  0  0  0  0  0  0  0  0  0  0  0
    2.6099    8.7704    4.4923 F   0  0  0  0  0  0  0  0  0  0  0  0
    2.5377    9.9601    6.3044 F   0  0  0  0  0  0  0  0  0  0  0  0
    1.5803    6.6279    6.2670 S   0  0  0  0  0  0  0  0  0  0  0  0
    4.0601    7.7440    6.4566 S   0  0  0  0  0  0  0  0  0  0  0  0
    2.8852    6.9280    7.0811 N   0  0  0  0  0  0  0  0  0  0  0  0
    1.7956    5.8054    5.0941 O   0  0  0  0  0  0  0  0  0  0  0  0
    0.6846    7.7217    6.1199 O   0  0  0  0  0  0  0  0  0  0  0  0
    4.9067    8.3137    7.4547 O   0  0  0  0  0  0  0  0  0  0  0  0
    4.7672    7.0447    5.4065 O   0  0  0  0  0  0  0  0  0  0  0  0
    8.8759    9.5909    1.1949 C   0  0  0  0  0  0  0  0  0  0  0  0
    8.3792    8.4859    0.6512 C   0  0  0  0  0  0  0  0  0  0  0  0
    9.7870   10.0347    0.8318 H   0  0  0  0  0  0  0  0  0  0  0  0
    8.3934   10.1036    2.0102 H   0  0  0  0  0  0  0  0  0  0  0  0
    7.1615    7.7958    1.0634 C   0  0  0  0  0  0  0  0  0  0  0  0
    8.9186    8.0086   -0.1582 H   0  0  0  0  0  0  0  0  0  0  0  0
    6.1803    8.4000    1.8505 C   0  0  0  0  0  0  0  0  0  0  0  0
    5.0655    7.6924    2.2583 C   0  0  0  0  0  0  0  0  0  0  0  0
    4.8999    6.3605    1.9036 C   0  0  0  0  0  0  0  0  0  0  0  0
    6.9635    6.4698    0.6693 C   0  0  0  0  0  0  0  0  0  0  0  0
    5.8572    5.7606    1.0906 C   0  0  0  0  0  0  0  0  0  0  0  0
    7.6984    5.9903    0.0383 H   0  0  0  0  0  0  0  0  0  0  0  0
    5.7272    4.7288    0.8048 H   0  0  0  0  0  0  0  0  0  0  0  0
    4.3172    8.1751    2.8633 H   0  0  0  0  0  0  0  0  0  0  0  0
    6.2794    9.4354    2.1370 H   0  0  0  0  0  0  0  0  0  0  0  0
    3.7360    5.5509    2.4105 C   0  0  0  0  0  0  0  0  0  0  0  0
    4.2477    4.2528    2.8364 N   0  0  0  0  0  0  0  0  0  0  0  0
    3.0303    5.3778    1.5920 H   0  0  0  0  0  0  0  0  0  0  0  0
    3.2198    6.0965    3.2112 H   0  0  0  0  0  0  0  0  0  0  0  0
    3.3042    3.2438    3.1559 C   0  0  0  0  0  0  0  0  0  0  0  0
    5.1173    4.3107    3.9995 C   0  0  0  0  0  0  0  0  0  0  0  0
    4.2744    3.8401    5.2038 C   0  0  0  0  0  0  0  0  0  0  0  0
    5.4722    5.3270    4.1537 H   0  0  0  0  0  0  0  0  0  0  0  0
    5.9481    3.6208    3.8497 H   0  0  0  0  0  0  0  0  0  0  0  0
    2.9758    3.4383    4.6209 N   0  0  0  0  0  0  0  0  0  0  0  0
    4.1281    4.6379    5.9318 H   0  0  0  0  0  0  0  0  0  0  0  0
    4.7407    2.9768    5.6741 H   0  0  0  0  0  0  0  0  0  0  0  0
    3.7932    2.2648    3.0752 H   0  0  0  0  0  0  0  0  0  0  0  0
    2.4065    3.3030    2.5422 H   0  0  0  0  0  0  0  0  0  0  0  0
    2.3538    2.2948    5.3142 C   0  0  0  0  0  0  0  0  0  0  0  0
    0.9127    2.0451    4.8677 C   0  0  0  0  0  0  0  0  0  0  0  0
    2.3649    2.5271    6.3796 H   0  0  0  0  0  0  0  0  0  0  0  0
    2.9860    1.4147    5.1593 H   0  0  0  0  0  0  0  0  0  0  0  0
    0.7700    1.0375    3.7267 C   0  0  0  0  0  0  0  0  0  0  0  0
    0.4487    2.9955    4.5918 H   0  0  0  0  0  0  0  0  0  0  0  0
    0.3569    1.6585    5.7228 H   0  0  0  0  0  0  0  0  0  0  0  0
   -0.6961    0.8323    3.3638 C   0  0  0  0  0  0  0  0  0  0  0  0
    1.2034    0.0873    4.0401 H   0  0  0  0  0  0  0  0  0  0  0  0
    1.3143    1.3715    2.8435 H   0  0  0  0  0  0  0  0  0  0  0  0
   -0.7916    0.1133    2.5561 H   0  0  0  0  0  0  0  0  0  0  0  0
   -1.1459    1.7688    3.0446 H   0  0  0  0  0  0  0  0  0  0  0  0
   -1.2536    0.4614    4.2201 H   0  0  0  0  0  0  0  0  0  0  0  0
    2.3565    4.2731    4.7054 H   0  0  0  0  0  0  0  0  0  0  0  0
   10.4561    2.0098    8.8180 C   0  0  0  0  0  0  0  0  0  0  0  0
    9.3600    2.5335    8.2805 C   0  0  0  0  0  0  0  0  0  0  0  0
   10.6087    0.9453    8.8181 H   0  0  0  0  0  0  0  0  0  0  0  0
   11.2338    2.6000    9.2779 H   0  0  0  0  0  0  0  0  0  0  0  0
    9.0309    3.9524    8.2129 C   0  0  0  0  0  0  0  0  0  0  0  0
    8.6241    1.8758    7.8356 H   0  0  0  0  0  0  0  0  0  0  0  0
    9.8186    4.9602    8.7739 C   0  0  0  0  0  0  0  0  0  0  0  0
    9.4803    6.2940    8.6297 C   0  0  0  0  0  0  0  0  0  0  0  0
    8.3299    6.6719    7.9462 C   0  0  0  0  0  0  0  0  0  0  0  0
    7.8537    4.3305    7.5594 C   0  0  0  0  0  0  0  0  0  0  0  0
    7.5000    5.6644    7.4381 C   0  0  0  0  0  0  0  0  0  0  0  0
    7.2296    3.5651    7.1276 H   0  0  0  0  0  0  0  0  0  0  0  0
    6.5486    5.9328    6.9958 H   0  0  0  0  0  0  0  0  0  0  0  0
   10.1157    7.0527    9.0657 H   0  0  0  0  0  0  0  0  0  0  0  0
   10.7109    4.7035    9.3234 H   0  0  0  0  0  0  0  0  0  0  0  0
    8.0288    8.1184    7.6432 C   0  0  0  0  0  0  0  0  0  0  0  0
    8.4686    8.5415    6.3070 N   0  0  0  0  0  0  0  0  0  0  0  0
    8.5321    8.7737    8.3560 H   0  0  0  0  0  0  0  0  0  0  0  0
    6.9550    8.3034    7.7013 H   0  0  0  0  0  0  0  0  0  0  0  0
    7.8548    7.9005    5.2073 C   0  0  0  0  0  0  0  0  0  0  0  0
    9.8825    8.3912    6.0386 C   0  0  0  0  0  0  0  0  0  0  0  0
   10.0365    6.9905    5.3891 C   0  0  0  0  0  0  0  0  0  0  0  0
   10.4688    8.4937    6.9479 H   0  0  0  0  0  0  0  0  0  0  0  0
   10.1884    9.1694    5.3346 H   0  0  0  0  0  0  0  0  0  0  0  0
    8.6581    6.6043    5.0087 N   0  0  0  0  0  0  0  0  0  0  0  0
   10.4483    6.2757    6.0987 H   0  0  0  0  0  0  0  0  0  0  0  0
   10.6681    7.0259    4.5029 H   0  0  0  0  0  0  0  0  0  0  0  0
    7.9934    8.4901    4.2948 H   0  0  0  0  0  0  0  0  0  0  0  0
    6.7959    7.6849    5.3569 H   0  0  0  0  0  0  0  0  0  0  0  0
    8.4876    5.9538    3.6980 C   0  0  0  0  0  0  0  0  0  0  0  0
    8.7287    4.4471    3.7504 C   0  0  0  0  0  0  0  0  0  0  0  0
    9.1536    6.4371    2.9784 H   0  0  0  0  0  0  0  0  0  0  0  0
    7.4595    6.1302    3.3792 H   0  0  0  0  0  0  0  0  0  0  0  0
   10.1665    4.0158    4.0360 C   0  0  0  0  0  0  0  0  0  0  0  0
    8.4333    4.0447    2.7802 H   0  0  0  0  0  0  0  0  0  0  0  0
    8.0780    3.9881    4.4967 H   0  0  0  0  0  0  0  0  0  0  0  0
   10.2770    2.4971    3.9627 C   0  0  0  0  0  0  0  0  0  0  0  0
   10.4655    4.3273    5.0383 H   0  0  0  0  0  0  0  0  0  0  0  0
   10.8492    4.4744    3.3152 H   0  0  0  0  0  0  0  0  0  0  0  0
   10.0320    2.1402    2.9656 H   0  0  0  0  0  0  0  0  0  0  0  0
    9.5860    2.0451    4.6691 H   0  0  0  0  0  0  0  0  0  0  0  0
   11.2853    2.1748    4.2082 H   0  0  0  0  0  0  0  0  0  0  0  0
    8.2826    5.9656    5.7473 H   0  0  0  0  0  0  0  0  0  0  0  0
  1  3  1  0  0  0  0
  1  4  1  0  0  0  0
  1  5  1  0  0  0  0
  2  6  1  0  0  0  0
  2  7  1  0  0  0  0
  2  8  1  0  0  0  0
  1  9  1  0  0  0  0
  2 10  1  0  0  0  0
  9 11  1  0  0  0  0
 10 11  1  0  0  0  0
  9 12  2  0  0  0  0
  9 13  2  0  0  0  0
 10 14  2  0  0  0  0
 10 15  2  0  0  0  0
 16 18  1  0  0  0  0
 16 19  1  0  0  0  0
 16 20  1  0  0  0  0
 17 21  1  0  0  0  0
 17 22  1  0  0  0  0
 17 23  1  0  0  0  0
 16 24  1  0  0  0  0
 17 25  1  0  0  0  0
 24 26  1  0  0  0  0
 25 26  1  0  0  0  0
 24 27  2  0  0  0  0
 24 28  2  0  0  0  0
 25 29  2  0  0  0  0
 25 30  2  0  0  0  0
 31 32  2  0  0  0  0
 31 33  1  0  0  0  0
 31 34  1  0  0  0  0
 32 35  1  0  0  0  0
 32 36  1  0  0  0  0
 35 37  4  0  0  0  0
 37 38  4  0  0  0  0
 38 39  4  0  0  0  0
 35 40  4  0  0  0  0
 39 41  4  0  0  0  0
 40 41  4  0  0  0  0
 40 42  1  0  0  0  0
 41 43  1  0  0  0  0
 38 44  1  0  0  0  0
 37 45  1  0  0  0  0
 39 46  1  0  0  0  0
 46 47  1  0  0  0  0
 46 48  1  0  0  0  0
 46 49  1  0  0  0  0
 47 50  1  0  0  0  0
 47 51  1  0  0  0  0
 51 52  1  0  0  0  0
 51 53  1  0  0  0  0
 51 54  1  0  0  0  0
 50 55  1  0  0  0  0
 52 55  1  0  0  0  0
 52 56  1  0  0  0  0
 52 57  1  0  0  0  0
 50 58  1  0  0  0  0
 50 59  1  0  0  0  0
 55 60  1  0  0  0  0
 60 61  1  0  0  0  0
 60 62  1  0  0  0  0
 60 63  1  0  0  0  0
 61 64  1  0  0  0  0
 61 65  1  0  0  0  0
 61 66  1  0  0  0  0
 64 67  1  0  0  0  0
 64 68  1  0  0  0  0
 64 69  1  0  0  0  0
 67 70  1  0  0  0  0
 67 71  1  0  0  0  0
 67 72  1  0  0  0  0
 55 73  1  0  0  0  0
 74 75  2  0  0  0  0
 74 76  1  0  0  0  0
 74 77  1  0  0  0  0
 75 78  1  0  0  0  0
 75 79  1  0  0  0  0
 78 80  4  0  0  0  0
 80 81  4  0  0  0  0
 81 82  4  0  0  0  0
 78 83  4  0  0  0  0
 82 84  4  0  0  0  0
 83 84  4  0  0  0  0
 83 85  1  0  0  0  0
 84 86  1  0  0  0  0
 81 87  1  0  0  0  0
 80 88  1  0  0  0  0
 82 89  1  0  0  0  0
 89 90  1  0  0  0  0
 89 91  1  0  0  0  0
 89 92  1  0  0  0  0
 90 93  1  0  0  0  0
 90 94  1  0  0  0  0
 94 95  1  0  0  0  0
 94 96  1  0  0  0  0
 94 97  1  0  0  0  0
 93 98  1  0  0  0  0
 95 98  1  0  0  0  0
 95 99  1  0  0  0  0
 95100  1  0  0  0  0
 93101  1  0  0  0  0
 93102  1  0  0  0  0
 98103  1  0  0  0  0
103104  1  0  0  0  0
103105  1  0  0  0  0
103106  1  0  0  0  0
104107  1  0  0  0  0
104108  1  0  0  0  0
104109  1  0  0  0  0
107110  1  0  0  0  0
107111  1  0  0  0  0
107112  1  0  0  0  0
110113  1  0  0  0  0
110114  1  0  0  0  0
110115  1  0  0  0  0
 98116  1  0  0  0  0
M  END
