 xtb: 6.7.1 (edcfbbe)
          10212513373D

116116  0     0  0            999 V2000
    4.7215   10.5873    2.5757 C   0  0  0  0  0  0  0  0  0  0  0  0
    6.7756    6.5990    2.8859 C   0  0  0  0  0  0  0  0  0  0  0  0
    4.0340    9.4641    2.3411 F   0  0  0  0  0  0  0  0  0  0  0  0
    3.8250   11.5415    2.8498 F   0  0  0  0  0  0  0  0  0  0  0  0
    5.3446   10.9192    1.4519 F   0  0  0  0  0  0  0  0  0  0  0  0
    8.0792    6.6569    2.6402 F   0  0  0  0  0  0  0  0  0  0  0  0
    6.4535    5.3228    3.0894 F   0  0  0  0  0  0  0  0  0  0  0  0
    6.1345    6.9995    1.7861 F   0  0  0  0  0  0  0  0  0  0  0  0
    5.9483   10.3967    4.0007 S   0  0  0  0  0  0  0  0  0  0  0  0
    6.2697    7.7470    4.2848 S   0  0  0  0  0  0  0  0  0  0  0  0
    6.7405    9.0943    3.6214 N   0  0  0  0  0  0  0  0  0  0  0  0
    6.7474   11.5762    3.9099 O   0  0  0  0  0  0  0  0  0  0  0  0
    5.1390   10.2644    5.1823 O   0  0  0  0  0  0  0  0  0  0  0  0
    7.0513    7.3969    5.4378 O   0  0  0  0  0  0  0  0  0  0  0  0
    4.8467    7.6001    4.3637 O   0  0  0  0  0  0  0  0  0  0  0  0
    8.1598    6.2773   10.5913 C   0  0  0  0  0  0  0  0  0  0  0  0
    6.2539    5.0739    6.4529 C   0  0  0  0  0  0  0  0  0  0  0  0
    8.7794    7.4085   10.9768 F   0  0  0  0  0  0  0  0  0  0  0  0
    6.9040    6.3726   11.0194 F   0  0  0  0  0  0  0  0  0  0  0  0
    8.7418    5.2682   11.2295 F   0  0  0  0  0  0  0  0  0  0  0  0
    5.3155    5.2324    5.4993 F   0  0  0  0  0  0  0  0  0  0  0  0
    7.4264    4.9708    5.8590 F   0  0  0  0  0  0  0  0  0  0  0  0
    5.9695    3.9123    7.0286 F   0  0  0  0  0  0  0  0  0  0  0  0
    8.4076    6.1032    8.7164 S   0  0  0  0  0  0  0  0  0  0  0  0
    6.0050    6.4585    7.7116 S   0  0  0  0  0  0  0  0  0  0  0  0
    7.3805    7.1412    8.0903 N   0  0  0  0  0  0  0  0  0  0  0  0
    9.7442    6.5829    8.5789 O   0  0  0  0  0  0  0  0  0  0  0  0
    8.0871    4.7610    8.3804 O   0  0  0  0  0  0  0  0  0  0  0  0
    5.4422    5.7743    8.8370 O   0  0  0  0  0  0  0  0  0  0  0  0
    5.0993    7.4233    7.1437 O   0  0  0  0  0  0  0  0  0  0  0  0
   14.1330   10.1707    1.0455 C   0  0  0  0  0  0  0  0  0  0  0  0
   12.9624    9.6015    1.3056 C   0  0  0  0  0  0  0  0  0  0  0  0
   14.4848   10.2894    0.0353 H   0  0  0  0  0  0  0  0  0  0  0  0
   14.7845   10.5436    1.8153 H   0  0  0  0  0  0  0  0  0  0  0  0
   12.3695    9.3816    2.6196 C   0  0  0  0  0  0  0  0  0  0  0  0
   12.3533    9.2560    0.4796 H   0  0  0  0  0  0  0  0  0  0  0  0
   13.0292    9.6801    3.8144 C   0  0  0  0  0  0  0  0  0  0  0  0
   12.4269    9.4442    5.0338 C   0  0  0  0  0  0  0  0  0  0  0  0
   11.1451    8.9081    5.1001 C   0  0  0  0  0  0  0  0  0  0  0  0
   11.0816    8.8482    2.6970 C   0  0  0  0  0  0  0  0  0  0  0  0
   10.4745    8.6228    3.9169 C   0  0  0  0  0  0  0  0  0  0  0  0
   10.5465    8.6079    1.7906 H   0  0  0  0  0  0  0  0  0  0  0  0
    9.4723    8.2232    3.9526 H   0  0  0  0  0  0  0  0  0  0  0  0
   12.9479    9.6783    5.9502 H   0  0  0  0  0  0  0  0  0  0  0  0
   14.0256   10.0923    3.7905 H   0  0  0  0  0  0  0  0  0  0  0  0
   10.4758    8.6645    6.4212 C   0  0  0  0  0  0  0  0  0  0  0  0
   10.1955    9.9374    7.1049 N   0  0  0  0  0  0  0  0  0  0  0  0
   11.1320    8.0956    7.0844 H   0  0  0  0  0  0  0  0  0  0  0  0
    9.5654    8.0711    6.2677 H   0  0  0  0  0  0  0  0  0  0  0  0
    9.3576    9.7795    8.2422 C   0  0  0  0  0  0  0  0  0  0  0  0
    9.4613   10.8861    6.2911 C   0  0  0  0  0  0  0  0  0  0  0  0
    8.0053   10.4022    6.3798 C   0  0  0  0  0  0  0  0  0  0  0  0
    9.8261   10.9139    5.2685 H   0  0  0  0  0  0  0  0  0  0  0  0
    9.5708   11.8804    6.7335 H   0  0  0  0  0  0  0  0  0  0  0  0
    7.9211    9.7595    7.7143 N   0  0  0  0  0  0  0  0  0  0  0  0
    7.7988    9.6670    5.6045 H   0  0  0  0  0  0  0  0  0  0  0  0
    7.2862   11.2114    6.2805 H   0  0  0  0  0  0  0  0  0  0  0  0
    9.4505   10.6543    8.8950 H   0  0  0  0  0  0  0  0  0  0  0  0
    9.5776    8.8596    8.7847 H   0  0  0  0  0  0  0  0  0  0  0  0
    6.9165   10.3877    8.5887 C   0  0  0  0  0  0  0  0  0  0  0  0
    6.7834    9.6676    9.9263 C   0  0  0  0  0  0  0  0  0  0  0  0
    5.9664   10.3437    8.0524 H   0  0  0  0  0  0  0  0  0  0  0  0
    7.1943   11.4365    8.7393 H   0  0  0  0  0  0  0  0  0  0  0  0
    5.5447   10.1148   10.7054 C   0  0  0  0  0  0  0  0  0  0  0  0
    7.6744    9.8402   10.5318 H   0  0  0  0  0  0  0  0  0  0  0  0
    6.7009    8.5993    9.7308 H   0  0  0  0  0  0  0  0  0  0  0  0
    4.2575    9.5637   10.1048 C   0  0  0  0  0  0  0  0  0  0  0  0
    5.5054   11.2050   10.7445 H   0  0  0  0  0  0  0  0  0  0  0  0
    5.6362    9.7508   11.7297 H   0  0  0  0  0  0  0  0  0  0  0  0
    3.4072    9.8217   10.7320 H   0  0  0  0  0  0  0  0  0  0  0  0
    4.3213    8.4808   10.0325 H   0  0  0  0  0  0  0  0  0  0  0  0
    4.0820    9.9647    9.1103 H   0  0  0  0  0  0  0  0  0  0  0  0
    7.6552    8.7453    7.6286 H   0  0  0  0  0  0  0  0  0  0  0  0
   -0.6805    0.8919   11.3388 C   0  0  0  0  0  0  0  0  0  0  0  0
    0.4069    1.6534   11.3576 C   0  0  0  0  0  0  0  0  0  0  0  0
   -0.9844    0.3292   12.2048 H   0  0  0  0  0  0  0  0  0  0  0  0
   -1.3062    0.7885   10.4688 H   0  0  0  0  0  0  0  0  0  0  0  0
    0.9302    2.4545   10.2575 C   0  0  0  0  0  0  0  0  0  0  0  0
    0.9994    1.6962   12.2636 H   0  0  0  0  0  0  0  0  0  0  0  0
    2.1850    3.0517   10.3922 C   0  0  0  0  0  0  0  0  0  0  0  0
    2.7288    3.8180    9.3790 C   0  0  0  0  0  0  0  0  0  0  0  0
    2.0266    4.0042    8.1951 C   0  0  0  0  0  0  0  0  0  0  0  0
    0.2312    2.6582    9.0662 C   0  0  0  0  0  0  0  0  0  0  0  0
    0.7738    3.4181    8.0504 C   0  0  0  0  0  0  0  0  0  0  0  0
   -0.7462    2.2208    8.9343 H   0  0  0  0  0  0  0  0  0  0  0  0
    0.2270    3.5702    7.1320 H   0  0  0  0  0  0  0  0  0  0  0  0
    3.7013    4.2738    9.4972 H   0  0  0  0  0  0  0  0  0  0  0  0
    2.7426    2.9085   11.3065 H   0  0  0  0  0  0  0  0  0  0  0  0
    2.6238    4.8230    7.0838 C   0  0  0  0  0  0  0  0  0  0  0  0
    1.6290    5.7299    6.5087 N   0  0  0  0  0  0  0  0  0  0  0  0
    2.9419    4.1530    6.2800 H   0  0  0  0  0  0  0  0  0  0  0  0
    3.5072    5.3528    7.4599 H   0  0  0  0  0  0  0  0  0  0  0  0
    2.0953    6.5066    5.4095 C   0  0  0  0  0  0  0  0  0  0  0  0
    1.1350    6.7205    7.4448 C   0  0  0  0  0  0  0  0  0  0  0  0
    2.1586    7.8675    7.3696 C   0  0  0  0  0  0  0  0  0  0  0  0
    1.0437    6.2965    8.4421 H   0  0  0  0  0  0  0  0  0  0  0  0
    0.1500    7.0570    7.1082 H   0  0  0  0  0  0  0  0  0  0  0  0
    2.6468    7.8065    5.9738 N   0  0  0  0  0  0  0  0  0  0  0  0
    2.9986    7.6785    8.0375 H   0  0  0  0  0  0  0  0  0  0  0  0
    1.7295    8.8404    7.5919 H   0  0  0  0  0  0  0  0  0  0  0  0
    1.2514    6.7668    4.7639 H   0  0  0  0  0  0  0  0  0  0  0  0
    2.8698    6.0099    4.8276 H   0  0  0  0  0  0  0  0  0  0  0  0
    2.3649    8.9779    5.1170 C   0  0  0  0  0  0  0  0  0  0  0  0
    0.9168    9.4551    5.0952 C   0  0  0  0  0  0  0  0  0  0  0  0
    2.6760    8.6902    4.1127 H   0  0  0  0  0  0  0  0  0  0  0  0
    3.0264    9.7861    5.4350 H   0  0  0  0  0  0  0  0  0  0  0  0
    0.7533   10.5228    4.0113 C   0  0  0  0  0  0  0  0  0  0  0  0
    0.6315    9.8889    6.0551 H   0  0  0  0  0  0  0  0  0  0  0  0
    0.2322    8.6315    4.8838 H   0  0  0  0  0  0  0  0  0  0  0  0
   -0.6590   11.0935    3.9854 C   0  0  0  0  0  0  0  0  0  0  0  0
    0.9865   10.0857    3.0395 H   0  0  0  0  0  0  0  0  0  0  0  0
    1.4691   11.3263    4.1888 H   0  0  0  0  0  0  0  0  0  0  0  0
   -1.3891   10.3095    3.7975 H   0  0  0  0  0  0  0  0  0  0  0  0
   -0.7476   11.8377    3.1996 H   0  0  0  0  0  0  0  0  0  0  0  0
   -0.9004   11.5678    4.9338 H   0  0  0  0  0  0  0  0  0  0  0  0
    3.6829    7.7225    5.9844 H   0  0  0  0  0  0  0  0  0  0  0  0
  1  3  1  0  0  0  0
  1  4  1  0  0  0  0
  1  5  1  0  0  0  0
  2  6  1  0  0  0  0
  2  7  1  0  0  0  0
  2  8  1  0  0  0  0
  1  9  1  0  0  0  0
  2 10  1  0  0  0  0
  9 11  1  0  0  0  0
 10 11  1  0  0  0  0
  9 12  2  0  0  0  0
  9 13  2  0  0  0  0
 10 14  2  0  0  0  0
 10 15  2  0  0  0  0
 16 18  1  0  0  0  0
 16 19  1  0  0  0  0
 16 20  1  0  0  0  0
 17 21  1  0  0  0  0
 17 22  1  0  0  0  0
 17 23  1  0  0  0  0
 16 24  1  0  0  0  0
 17 25  1  0  0  0  0
 24 26  1  0  0  0  0
 25 26  1  0  0  0  0
 24 27  2  0  0  0  0
 24 28  2  0  0  0  0
 25 29  2  0  0  0  0
 25 30  2  0  0  0  0
 31 32  2  0  0  0  0
 31 33  1  0  0  0  0
 31 34  1  0  0  0  0
 32 35  1  0  0  0  0
 32 36  1  0  0  0  0
 35 37  4  0  0  0  0
 37 38  4  0  0  0  0
 38 39  4  0  0  0  0
 35 40  4  0  0  0  0
 39 41  4  0  0  0  0
 40 41  4  0  0  0  0
 40 42  1  0  0  0  0
 41 43  1  0  0  0  0
 38 44  1  0  0  0  0
 37 45  1  0  0  0  0
 39 46  1  0  0  0  0
 46 47  1  0  0  0  0
 46 48  1  0  0  0  0
 46 49  1  0  0  0  0
 47 50  1  0  0  0  0
 47 51  1  0  0  0  0
 51 52  1  0  0  0  0
 51 53  1  0  0  0  0
 51 54  1  0  0  0  0
 50 55  1  0  0  0  0
 52 55  1  0  0  0  0
 52 56  1  0  0  0  0
 52 57  1  0  0  0  0
 50 58  1  0  0  0  0
 50 59  1  0  0  0  0
 55 60  1  0  0  0  0
 60 61  1  0  0  0  0
 60 62  1  0  0  0  0
 60 63  1  0  0  0  0
 61 64  1  0  0  0  0
 61 65  1  0  0  0  0
 61 66  1  0  0  0  0
 64 67  1  0  0  0  0
 64 68  1  0  0  0  0
 64 69  1  0  0  0  0
 67 70  1  0  0  0  0
 67 71  1  0  0  0  0
 67 72  1  0  0  0  0
 55 73  1  0  0  0  0
 74 75  2  0  0  0  0
 74 76  1  0  0  0  0
 74 77  1  0  0  0  0
 75 78  1  0  0  0  0
 75 79  1  0  0  0  0
 78 80  4  0  0  0  0
 80 81  4  0  0  0  0
 81 82  4  0  0  0  0
 78 83  4  0  0  0  0
 82 84  4  0  0  0  0
 83 84  4  0  0  0  0
 83 85  1  0  0  0  0
 84 86  1  0  0  0  0
 81 87  1  0  0  0  0
 80 88  1  0  0  0  0
 82 89  1  0  0  0  0
 89 90  1  0  0  0  0
 89 91  1  0  0  0  0
 89 92  1  0  0  0  0
 90 93  1  0  0  0  0
 90 94  1  0  0  0  0
 94 95  1  0  0  0  0
 94 96  1  0  0  0  0
 94 97  1  0  0  0  0
 93 98  1  0  0  0  0
 95 98  1  0  0  0  0
 95 99  1  0  0  0  0
 95100  1  0  0  0  0
 93101  1  0  0  0  0
 93102  1  0  0  0  0
 98103  1  0  0  0  0
103104  1  0  0  0  0
103105  1  0  0  0  0
103106  1  0  0  0  0
104107  1  0  0  0  0
104108  1  0  0  0  0
104109  1  0  0  0  0
107110  1  0  0  0  0
107111  1  0  0  0  0
107112  1  0  0  0  0
110113  1  0  0  0  0
110114  1  0  0  0  0
110115  1  0  0  0  0
 98116  1  0  0  0  0
M  END
