 xtb: 6.7.1 (edcfbbe)
          10212513393D

116116  0     0  0            999 V2000
   10.0944    7.1833    0.4113 C   0  0  0  0  0  0  0  0  0  0  0  0
    7.5018    9.5999    3.1049 C   0  0  0  0  0  0  0  0  0  0  0  0
    9.5355    7.2855   -0.7785 F   0  0  0  0  0  0  0  0  0  0  0  0
   10.3749    8.3935    0.8940 F   0  0  0  0  0  0  0  0  0  0  0  0
   11.2668    6.5568    0.2432 F   0  0  0  0  0  0  0  0  0  0  0  0
    7.1009    9.2368    4.3333 F   0  0  0  0  0  0  0  0  0  0  0  0
    8.7648   10.0065    3.2103 F   0  0  0  0  0  0  0  0  0  0  0  0
    6.7609   10.6388    2.7326 F   0  0  0  0  0  0  0  0  0  0  0  0
    9.1050    6.1876    1.6748 S   0  0  0  0  0  0  0  0  0  0  0  0
    7.3381    8.1039    1.9697 S   0  0  0  0  0  0  0  0  0  0  0  0
    8.4405    7.2094    2.6850 N   0  0  0  0  0  0  0  0  0  0  0  0
    8.1300    5.4105    0.9739 O   0  0  0  0  0  0  0  0  0  0  0  0
   10.1273    5.4603    2.3801 O   0  0  0  0  0  0  0  0  0  0  0  0
    7.7124    8.4948    0.6559 O   0  0  0  0  0  0  0  0  0  0  0  0
    5.9910    7.6697    2.1925 O   0  0  0  0  0  0  0  0  0  0  0  0
    5.2327    0.4933    7.0202 C   0  0  0  0  0  0  0  0  0  0  0  0
    2.2889   -0.2192    3.4556 C   0  0  0  0  0  0  0  0  0  0  0  0
    4.4552   -0.5807    6.9952 F   0  0  0  0  0  0  0  0  0  0  0  0
    6.3399    0.1694    7.7020 F   0  0  0  0  0  0  0  0  0  0  0  0
    4.6302    1.4589    7.7106 F   0  0  0  0  0  0  0  0  0  0  0  0
    2.7261   -0.3631    2.2070 F   0  0  0  0  0  0  0  0  0  0  0  0
    2.3495   -1.3999    4.0580 F   0  0  0  0  0  0  0  0  0  0  0  0
    1.0079    0.1526    3.3983 F   0  0  0  0  0  0  0  0  0  0  0  0
    5.7167    1.0624    5.2787 S   0  0  0  0  0  0  0  0  0  0  0  0
    3.3194    1.0650    4.3444 S   0  0  0  0  0  0  0  0  0  0  0  0
    4.7281    0.3531    4.2932 N   0  0  0  0  0  0  0  0  0  0  0  0
    5.5145    2.4943    5.3069 O   0  0  0  0  0  0  0  0  0  0  0  0
    7.0758    0.6503    5.1353 O   0  0  0  0  0  0  0  0  0  0  0  0
    2.8098    1.1994    5.6693 O   0  0  0  0  0  0  0  0  0  0  0  0
    3.2013    2.2370    3.5103 O   0  0  0  0  0  0  0  0  0  0  0  0
    8.4520    6.0979   11.4269 C   0  0  0  0  0  0  0  0  0  0  0  0
    7.7622    5.3413   10.5817 C   0  0  0  0  0  0  0  0  0  0  0  0
    7.9596    6.6747   12.1890 H   0  0  0  0  0  0  0  0  0  0  0  0
    9.5261    6.1753   11.4021 H   0  0  0  0  0  0  0  0  0  0  0  0
    8.3083    4.5180    9.5094 C   0  0  0  0  0  0  0  0  0  0  0  0
    6.6832    5.3166   10.6581 H   0  0  0  0  0  0  0  0  0  0  0  0
    7.4316    3.9084    8.6076 C   0  0  0  0  0  0  0  0  0  0  0  0
    7.9004    3.1319    7.5656 C   0  0  0  0  0  0  0  0  0  0  0  0
    9.2665    2.9325    7.3842 C   0  0  0  0  0  0  0  0  0  0  0  0
    9.6765    4.2988    9.3387 C   0  0  0  0  0  0  0  0  0  0  0  0
   10.1447    3.5255    8.2923 C   0  0  0  0  0  0  0  0  0  0  0  0
   10.3804    4.7226   10.0373 H   0  0  0  0  0  0  0  0  0  0  0  0
   11.2085    3.3511    8.1988 H   0  0  0  0  0  0  0  0  0  0  0  0
    7.2015    2.6670    6.8888 H   0  0  0  0  0  0  0  0  0  0  0  0
    6.3660    4.0367    8.7300 H   0  0  0  0  0  0  0  0  0  0  0  0
    9.7781    2.1308    6.2122 C   0  0  0  0  0  0  0  0  0  0  0  0
    9.9605    2.8944    4.9779 N   0  0  0  0  0  0  0  0  0  0  0  0
    9.0747    1.3307    5.9756 H   0  0  0  0  0  0  0  0  0  0  0  0
   10.7454    1.6854    6.4558 H   0  0  0  0  0  0  0  0  0  0  0  0
   10.8232    4.0064    5.0382 C   0  0  0  0  0  0  0  0  0  0  0  0
    8.7583    3.4462    4.3872 C   0  0  0  0  0  0  0  0  0  0  0  0
    8.6204    4.8722    4.9862 C   0  0  0  0  0  0  0  0  0  0  0  0
    7.9030    2.8056    4.5836 H   0  0  0  0  0  0  0  0  0  0  0  0
    8.9138    3.5265    3.3102 H   0  0  0  0  0  0  0  0  0  0  0  0
    9.9555    5.1561    5.5717 N   0  0  0  0  0  0  0  0  0  0  0  0
    7.8594    4.9097    5.7633 H   0  0  0  0  0  0  0  0  0  0  0  0
    8.4114    5.6059    4.2087 H   0  0  0  0  0  0  0  0  0  0  0  0
   11.1122    4.3081    4.0268 H   0  0  0  0  0  0  0  0  0  0  0  0
   11.6925    3.8533    5.6762 H   0  0  0  0  0  0  0  0  0  0  0  0
   10.4968    6.4965    5.2904 C   0  0  0  0  0  0  0  0  0  0  0  0
    9.6724    7.6020    5.9404 C   0  0  0  0  0  0  0  0  0  0  0  0
   10.4935    6.6261    4.2066 H   0  0  0  0  0  0  0  0  0  0  0  0
   11.5257    6.5229    5.6544 H   0  0  0  0  0  0  0  0  0  0  0  0
    9.5293    7.4845    7.4602 C   0  0  0  0  0  0  0  0  0  0  0  0
    8.6851    7.6277    5.4808 H   0  0  0  0  0  0  0  0  0  0  0  0
   10.1605    8.5475    5.7024 H   0  0  0  0  0  0  0  0  0  0  0  0
   10.8651    7.4860    8.1970 C   0  0  0  0  0  0  0  0  0  0  0  0
    8.9624    6.5899    7.7308 H   0  0  0  0  0  0  0  0  0  0  0  0
    8.9444    8.3387    7.8023 H   0  0  0  0  0  0  0  0  0  0  0  0
   11.4370    6.5815    8.0039 H   0  0  0  0  0  0  0  0  0  0  0  0
   10.6951    7.5507    9.2679 H   0  0  0  0  0  0  0  0  0  0  0  0
   11.4620    8.3431    7.8969 H   0  0  0  0  0  0  0  0  0  0  0  0
    9.8947    5.0216    6.5911 H   0  0  0  0  0  0  0  0  0  0  0  0
   -2.0292    3.9118    9.5923 C   0  0  0  0  0  0  0  0  0  0  0  0
   -1.4500    4.9320    8.9716 C   0  0  0  0  0  0  0  0  0  0  0  0
   -2.9786    4.0222   10.0880 H   0  0  0  0  0  0  0  0  0  0  0  0
   -1.5852    2.9327    9.6353 H   0  0  0  0  0  0  0  0  0  0  0  0
   -0.1665    4.9060    8.2797 C   0  0  0  0  0  0  0  0  0  0  0  0
   -1.9384    5.8997    8.9821 H   0  0  0  0  0  0  0  0  0  0  0  0
    0.4833    3.7220    7.9329 C   0  0  0  0  0  0  0  0  0  0  0  0
    1.7128    3.7417    7.3020 C   0  0  0  0  0  0  0  0  0  0  0  0
    2.3316    4.9487    7.0057 C   0  0  0  0  0  0  0  0  0  0  0  0
    0.4492    6.1142    7.9448 C   0  0  0  0  0  0  0  0  0  0  0  0
    1.6817    6.1359    7.3252 C   0  0  0  0  0  0  0  0  0  0  0  0
   -0.0428    7.0444    8.1925 H   0  0  0  0  0  0  0  0  0  0  0  0
    2.1535    7.0755    7.0795 H   0  0  0  0  0  0  0  0  0  0  0  0
    2.1924    2.8138    7.0325 H   0  0  0  0  0  0  0  0  0  0  0  0
    0.0204    2.7721    8.1479 H   0  0  0  0  0  0  0  0  0  0  0  0
    3.6985    4.9883    6.3752 C   0  0  0  0  0  0  0  0  0  0  0  0
    3.7018    5.9068    5.2358 N   0  0  0  0  0  0  0  0  0  0  0  0
    4.0246    3.9760    6.1109 H   0  0  0  0  0  0  0  0  0  0  0  0
    4.4017    5.3975    7.1064 H   0  0  0  0  0  0  0  0  0  0  0  0
    3.0649    5.4094    4.0674 C   0  0  0  0  0  0  0  0  0  0  0  0
    5.0138    6.2948    4.7624 C   0  0  0  0  0  0  0  0  0  0  0  0
    5.4270    5.1613    3.8090 C   0  0  0  0  0  0  0  0  0  0  0  0
    5.7100    6.4380    5.5844 H   0  0  0  0  0  0  0  0  0  0  0  0
    4.9324    7.2280    4.2002 H   0  0  0  0  0  0  0  0  0  0  0  0
    4.1436    4.7566    3.1948 N   0  0  0  0  0  0  0  0  0  0  0  0
    5.8311    4.3179    4.3649 H   0  0  0  0  0  0  0  0  0  0  0  0
    6.1261    5.5024    3.0512 H   0  0  0  0  0  0  0  0  0  0  0  0
    2.6575    6.2455    3.4904 H   0  0  0  0  0  0  0  0  0  0  0  0
    2.2821    4.6865    4.2998 H   0  0  0  0  0  0  0  0  0  0  0  0
    3.9985    5.1417    1.7765 C   0  0  0  0  0  0  0  0  0  0  0  0
    4.9577    4.4432    0.8147 C   0  0  0  0  0  0  0  0  0  0  0  0
    4.1713    6.2199    1.7107 H   0  0  0  0  0  0  0  0  0  0  0  0
    2.9695    4.9084    1.4915 H   0  0  0  0  0  0  0  0  0  0  0  0
    4.9470    2.9088    0.8728 C   0  0  0  0  0  0  0  0  0  0  0  0
    5.9768    4.8052    0.9553 H   0  0  0  0  0  0  0  0  0  0  0  0
    4.6530    4.7665   -0.1822 H   0  0  0  0  0  0  0  0  0  0  0  0
    6.0573    2.3377    1.7510 C   0  0  0  0  0  0  0  0  0  0  0  0
    5.0954    2.5303   -0.1382 H   0  0  0  0  0  0  0  0  0  0  0  0
    3.9797    2.5439    1.2218 H   0  0  0  0  0  0  0  0  0  0  0  0
    6.1487    1.2666    1.5874 H   0  0  0  0  0  0  0  0  0  0  0  0
    5.8584    2.4766    2.8100 H   0  0  0  0  0  0  0  0  0  0  0  0
    7.0052    2.8116    1.5040 H   0  0  0  0  0  0  0  0  0  0  0  0
    4.0084    3.7287    3.2698 H   0  0  0  0  0  0  0  0  0  0  0  0
  1  3  1  0  0  0  0
  1  4  1  0  0  0  0
  1  5  1  0  0  0  0
  2  6  1  0  0  0  0
  2  7  1  0  0  0  0
  2  8  1  0  0  0  0
  1  9  1  0  0  0  0
  2 10  1  0  0  0  0
  9 11  1  0  0  0  0
 10 11  1  0  0  0  0
  9 12  2  0  0  0  0
  9 13  2  0  0  0  0
 10 14  2  0  0  0  0
 10 15  2  0  0  0  0
 16 18  1  0  0  0  0
 16 19  1  0  0  0  0
 16 20  1  0  0  0  0
 17 21  1  0  0  0  0
 17 22  1  0  0  0  0
 17 23  1  0  0  0  0
 16 24  1  0  0  0  0
 17 25  1  0  0  0  0
 24 26  1  0  0  0  0
 25 26  1  0  0  0  0
 24 27  2  0  0  0  0
 24 28  2  0  0  0  0
 25 29  2  0  0  0  0
 25 30  2  0  0  0  0
 31 32  2  0  0  0  0
 31 33  1  0  0  0  0
 31 34  1  0  0  0  0
 32 35  1  0  0  0  0
 32 36  1  0  0  0  0
 35 37  4  0  0  0  0
 37 38  4  0  0  0  0
 38 39  4  0  0  0  0
 35 40  4  0  0  0  0
 39 41  4  0  0  0  0
 40 41  4  0  0  0  0
 40 42  1  0  0  0  0
 41 43  1  0  0  0  0
 38 44  1  0  0  0  0
 37 45  1  0  0  0  0
 39 46  1  0  0  0  0
 46 47  1  0  0  0  0
 46 48  1  0  0  0  0
 46 49  1  0  0  0  0
 47 50  1  0  0  0  0
 47 51  1  0  0  0  0
 51 52  1  0  0  0  0
 51 53  1  0  0  0  0
 51 54  1  0  0  0  0
 50 55  1  0  0  0  0
 52 55  1  0  0  0  0
 52 56  1  0  0  0  0
 52 57  1  0  0  0  0
 50 58  1  0  0  0  0
 50 59  1  0  0  0  0
 55 60  1  0  0  0  0
 60 61  1  0  0  0  0
 60 62  1  0  0  0  0
 60 63  1  0  0  0  0
 61 64  1  0  0  0  0
 61 65  1  0  0  0  0
 61 66  1  0  0  0  0
 64 67  1  0  0  0  0
 64 68  1  0  0  0  0
 64 69  1  0  0  0  0
 67 70  1  0  0  0  0
 67 71  1  0  0  0  0
 67 72  1  0  0  0  0
 55 73  1  0  0  0  0
 74 75  2  0  0  0  0
 74 76  1  0  0  0  0
 74 77  1  0  0  0  0
 75 78  1  0  0  0  0
 75 79  1  0  0  0  0
 78 80  4  0  0  0  0
 80 81  4  0  0  0  0
 81 82  4  0  0  0  0
 78 83  4  0  0  0  0
 82 84  4  0  0  0  0
 83 84  4  0  0  0  0
 83 85  1  0  0  0  0
 84 86  1  0  0  0  0
 81 87  1  0  0  0  0
 80 88  1  0  0  0  0
 82 89  1  0  0  0  0
 89 90  1  0  0  0  0
 89 91  1  0  0  0  0
 89 92  1  0  0  0  0
 90 93  1  0  0  0  0
 90 94  1  0  0  0  0
 94 95  1  0  0  0  0
 94 96  1  0  0  0  0
 94 97  1  0  0  0  0
 93 98  1  0  0  0  0
 95 98  1  0  0  0  0
 95 99  1  0  0  0  0
 95100  1  0  0  0  0
 93101  1  0  0  0  0
 93102  1  0  0  0  0
 98103  1  0  0  0  0
103104  1  0  0  0  0
103105  1  0  0  0  0
103106  1  0  0  0  0
104107  1  0  0  0  0
104108  1  0  0  0  0
104109  1  0  0  0  0
107110  1  0  0  0  0
107111  1  0  0  0  0
107112  1  0  0  0  0
110113  1  0  0  0  0
110114  1  0  0  0  0
110115  1  0  0  0  0
 98116  1  0  0  0  0
M  END
