 xtb: 6.7.1 (edcfbbe)
          10212513523D

116116  0     0  0            999 V2000
    5.6488    7.8445   11.1122 C   0  0  0  0  0  0  0  0  0  0  0  0
    3.4214    3.7115   10.3549 C   0  0  0  0  0  0  0  0  0  0  0  0
    6.1163    9.0927   10.9490 F   0  0  0  0  0  0  0  0  0  0  0  0
    4.5463    7.9142   11.8344 F   0  0  0  0  0  0  0  0  0  0  0  0
    6.5636    7.1556   11.7896 F   0  0  0  0  0  0  0  0  0  0  0  0
    3.7114    3.8649   11.6428 F   0  0  0  0  0  0  0  0  0  0  0  0
    2.2350    3.1216   10.2575 F   0  0  0  0  0  0  0  0  0  0  0  0
    4.3324    2.8857    9.8320 F   0  0  0  0  0  0  0  0  0  0  0  0
    5.4436    7.0965    9.3984 S   0  0  0  0  0  0  0  0  0  0  0  0
    3.4684    5.3784    9.4944 S   0  0  0  0  0  0  0  0  0  0  0  0
    5.0625    5.6035    9.5824 N   0  0  0  0  0  0  0  0  0  0  0  0
    4.4290    7.9104    8.7558 O   0  0  0  0  0  0  0  0  0  0  0  0
    6.7490    7.2885    8.8242 O   0  0  0  0  0  0  0  0  0  0  0  0
    2.7294    6.2725   10.3127 O   0  0  0  0  0  0  0  0  0  0  0  0
    3.0597    5.1594    8.1449 O   0  0  0  0  0  0  0  0  0  0  0  0
    7.8132    2.2655    0.6503 C   0  0  0  0  0  0  0  0  0  0  0  0
    9.5004   -0.6810    3.9752 C   0  0  0  0  0  0  0  0  0  0  0  0
    6.9292    3.1564    1.1165 F   0  0  0  0  0  0  0  0  0  0  0  0
    8.1195    2.6303   -0.5965 F   0  0  0  0  0  0  0  0  0  0  0  0
    7.1982    1.0869    0.5875 F   0  0  0  0  0  0  0  0  0  0  0  0
   10.3607   -1.0527    3.0418 F   0  0  0  0  0  0  0  0  0  0  0  0
    9.8871   -1.2427    5.1291 F   0  0  0  0  0  0  0  0  0  0  0  0
    8.3012   -1.1834    3.6723 F   0  0  0  0  0  0  0  0  0  0  0  0
    9.3055    2.1969    1.7938 S   0  0  0  0  0  0  0  0  0  0  0  0
    9.3299    1.1716    4.2489 S   0  0  0  0  0  0  0  0  0  0  0  0
    8.4765    1.7408    3.0771 N   0  0  0  0  0  0  0  0  0  0  0  0
   10.1652    1.1815    1.2904 O   0  0  0  0  0  0  0  0  0  0  0  0
    9.7730    3.5446    1.8580 O   0  0  0  0  0  0  0  0  0  0  0  0
   10.6490    1.7040    4.3977 O   0  0  0  0  0  0  0  0  0  0  0  0
    8.5330    1.1962    5.4617 O   0  0  0  0  0  0  0  0  0  0  0  0
    7.6053    8.8753    2.5713 C   0  0  0  0  0  0  0  0  0  0  0  0
    7.6580    7.5519    2.6683 C   0  0  0  0  0  0  0  0  0  0  0  0
    7.0903    9.3556    1.7573 H   0  0  0  0  0  0  0  0  0  0  0  0
    8.0873    9.5349    3.2738 H   0  0  0  0  0  0  0  0  0  0  0  0
    8.3332    6.7724    3.6978 C   0  0  0  0  0  0  0  0  0  0  0  0
    7.1701    6.9507    1.9126 H   0  0  0  0  0  0  0  0  0  0  0  0
    8.1568    5.3876    3.7174 C   0  0  0  0  0  0  0  0  0  0  0  0
    8.8209    4.5978    4.6367 C   0  0  0  0  0  0  0  0  0  0  0  0
    9.6736    5.1615    5.5811 C   0  0  0  0  0  0  0  0  0  0  0  0
    9.1921    7.3345    4.6435 C   0  0  0  0  0  0  0  0  0  0  0  0
    9.8436    6.5438    5.5693 C   0  0  0  0  0  0  0  0  0  0  0  0
    9.3871    8.3965    4.6303 H   0  0  0  0  0  0  0  0  0  0  0  0
   10.5262    7.0018    6.2722 H   0  0  0  0  0  0  0  0  0  0  0  0
    8.7275    3.5245    4.5555 H   0  0  0  0  0  0  0  0  0  0  0  0
    7.5211    4.9149    2.9849 H   0  0  0  0  0  0  0  0  0  0  0  0
   10.4130    4.3085    6.5838 C   0  0  0  0  0  0  0  0  0  0  0  0
    9.6743    3.9791    7.8121 N   0  0  0  0  0  0  0  0  0  0  0  0
   11.3145    4.8405    6.9037 H   0  0  0  0  0  0  0  0  0  0  0  0
   10.7185    3.3761    6.1043 H   0  0  0  0  0  0  0  0  0  0  0  0
    8.9004    2.7947    7.8063 C   0  0  0  0  0  0  0  0  0  0  0  0
    8.7279    4.9794    8.2644 C   0  0  0  0  0  0  0  0  0  0  0  0
    7.3821    4.5923    7.6038 C   0  0  0  0  0  0  0  0  0  0  0  0
    9.0402    5.9858    8.0020 H   0  0  0  0  0  0  0  0  0  0  0  0
    8.6400    4.9212    9.3513 H   0  0  0  0  0  0  0  0  0  0  0  0
    7.5693    3.1880    7.1756 N   0  0  0  0  0  0  0  0  0  0  0  0
    7.1787    5.2231    6.7410 H   0  0  0  0  0  0  0  0  0  0  0  0
    6.5600    4.6781    8.3133 H   0  0  0  0  0  0  0  0  0  0  0  0
    8.6839    2.4877    8.8349 H   0  0  0  0  0  0  0  0  0  0  0  0
    9.3434    1.9766    7.2405 H   0  0  0  0  0  0  0  0  0  0  0  0
    6.4473    2.2737    7.4457 C   0  0  0  0  0  0  0  0  0  0  0  0
    5.1476    2.7360    6.7875 C   0  0  0  0  0  0  0  0  0  0  0  0
    6.3054    2.2097    8.5260 H   0  0  0  0  0  0  0  0  0  0  0  0
    6.7439    1.3003    7.0515 H   0  0  0  0  0  0  0  0  0  0  0  0
    5.2027    2.8610    5.2621 C   0  0  0  0  0  0  0  0  0  0  0  0
    4.8266    3.6876    7.2159 H   0  0  0  0  0  0  0  0  0  0  0  0
    4.3841    2.0009    7.0453 H   0  0  0  0  0  0  0  0  0  0  0  0
    5.4167    1.5280    4.5546 C   0  0  0  0  0  0  0  0  0  0  0  0
    5.9853    3.5592    4.9556 H   0  0  0  0  0  0  0  0  0  0  0  0
    4.2530    3.2907    4.9373 H   0  0  0  0  0  0  0  0  0  0  0  0
    5.3442    1.6655    3.4799 H   0  0  0  0  0  0  0  0  0  0  0  0
    4.6628    0.8080    4.8632 H   0  0  0  0  0  0  0  0  0  0  0  0
    6.4024    1.1227    4.7591 H   0  0  0  0  0  0  0  0  0  0  0  0
    7.7380    3.1264    6.1606 H   0  0  0  0  0  0  0  0  0  0  0  0
    1.1996    4.7698    0.3051 C   0  0  0  0  0  0  0  0  0  0  0  0
    1.1447    4.6744    1.6281 C   0  0  0  0  0  0  0  0  0  0  0  0
    0.4475    4.3181   -0.3184 H   0  0  0  0  0  0  0  0  0  0  0  0
    1.9866    5.2913   -0.2113 H   0  0  0  0  0  0  0  0  0  0  0  0
    2.0917    5.2357    2.5836 C   0  0  0  0  0  0  0  0  0  0  0  0
    0.3223    4.1324    2.0799 H   0  0  0  0  0  0  0  0  0  0  0  0
    1.8541    5.0669    3.9492 C   0  0  0  0  0  0  0  0  0  0  0  0
    2.7147    5.5849    4.8984 C   0  0  0  0  0  0  0  0  0  0  0  0
    3.8459    6.2862    4.5016 C   0  0  0  0  0  0  0  0  0  0  0  0
    3.2349    5.9397    2.2005 C   0  0  0  0  0  0  0  0  0  0  0  0
    4.0985    6.4545    3.1449 C   0  0  0  0  0  0  0  0  0  0  0  0
    3.4558    6.0805    1.1545 H   0  0  0  0  0  0  0  0  0  0  0  0
    4.9801    6.9971    2.8422 H   0  0  0  0  0  0  0  0  0  0  0  0
    2.5221    5.4376    5.9513 H   0  0  0  0  0  0  0  0  0  0  0  0
    0.9787    4.5210    4.2700 H   0  0  0  0  0  0  0  0  0  0  0  0
    4.8028    6.8239    5.5310 C   0  0  0  0  0  0  0  0  0  0  0  0
    5.3503    8.1134    5.1221 N   0  0  0  0  0  0  0  0  0  0  0  0
    5.6560    6.1415    5.5956 H   0  0  0  0  0  0  0  0  0  0  0  0
    4.3115    6.8491    6.5144 H   0  0  0  0  0  0  0  0  0  0  0  0
    6.3295    8.6688    5.9849 C   0  0  0  0  0  0  0  0  0  0  0  0
    4.3787    9.1774    4.9201 C   0  0  0  0  0  0  0  0  0  0  0  0
    4.4951   10.1223    6.1437 C   0  0  0  0  0  0  0  0  0  0  0  0
    3.3810    8.7556    4.8140 H   0  0  0  0  0  0  0  0  0  0  0  0
    4.6275    9.7124    3.9996 H   0  0  0  0  0  0  0  0  0  0  0  0
    5.5546    9.5103    6.9699 N   0  0  0  0  0  0  0  0  0  0  0  0
    3.5688   10.1799    6.7122 H   0  0  0  0  0  0  0  0  0  0  0  0
    4.7960   11.1263    5.8418 H   0  0  0  0  0  0  0  0  0  0  0  0
    6.9747    9.3398    5.4119 H   0  0  0  0  0  0  0  0  0  0  0  0
    6.9189    7.9226    6.5171 H   0  0  0  0  0  0  0  0  0  0  0  0
    6.3323   10.4141    7.8435 C   0  0  0  0  0  0  0  0  0  0  0  0
    7.3261   11.3250    7.1178 C   0  0  0  0  0  0  0  0  0  0  0  0
    6.8675    9.7770    8.5491 H   0  0  0  0  0  0  0  0  0  0  0  0
    5.6089   11.0044    8.4090 H   0  0  0  0  0  0  0  0  0  0  0  0
    8.7613   10.7871    7.1303 C   0  0  0  0  0  0  0  0  0  0  0  0
    7.3275   12.2977    7.6120 H   0  0  0  0  0  0  0  0  0  0  0  0
    7.0037   11.4942    6.0889 H   0  0  0  0  0  0  0  0  0  0  0  0
    9.3957   10.8621    8.5143 C   0  0  0  0  0  0  0  0  0  0  0  0
    9.3587   11.3841    6.4383 H   0  0  0  0  0  0  0  0  0  0  0  0
    8.7813    9.7524    6.7870 H   0  0  0  0  0  0  0  0  0  0  0  0
    8.8698   10.2313    9.2263 H   0  0  0  0  0  0  0  0  0  0  0  0
    9.3851   11.8840    8.8857 H   0  0  0  0  0  0  0  0  0  0  0  0
   10.4283   10.5274    8.4688 H   0  0  0  0  0  0  0  0  0  0  0  0
    5.0802    8.8362    7.6255 H   0  0  0  0  0  0  0  0  0  0  0  0
  1  3  1  0  0  0  0
  1  4  1  0  0  0  0
  1  5  1  0  0  0  0
  2  6  1  0  0  0  0
  2  7  1  0  0  0  0
  2  8  1  0  0  0  0
  1  9  1  0  0  0  0
  2 10  1  0  0  0  0
  9 11  1  0  0  0  0
 10 11  1  0  0  0  0
  9 12  2  0  0  0  0
  9 13  2  0  0  0  0
 10 14  2  0  0  0  0
 10 15  2  0  0  0  0
 16 18  1  0  0  0  0
 16 19  1  0  0  0  0
 16 20  1  0  0  0  0
 17 21  1  0  0  0  0
 17 22  1  0  0  0  0
 17 23  1  0  0  0  0
 16 24  1  0  0  0  0
 17 25  1  0  0  0  0
 24 26  1  0  0  0  0
 25 26  1  0  0  0  0
 24 27  2  0  0  0  0
 24 28  2  0  0  0  0
 25 29  2  0  0  0  0
 25 30  2  0  0  0  0
 31 32  2  0  0  0  0
 31 33  1  0  0  0  0
 31 34  1  0  0  0  0
 32 35  1  0  0  0  0
 32 36  1  0  0  0  0
 35 37  4  0  0  0  0
 37 38  4  0  0  0  0
 38 39  4  0  0  0  0
 35 40  4  0  0  0  0
 39 41  4  0  0  0  0
 40 41  4  0  0  0  0
 40 42  1  0  0  0  0
 41 43  1  0  0  0  0
 38 44  1  0  0  0  0
 37 45  1  0  0  0  0
 39 46  1  0  0  0  0
 46 47  1  0  0  0  0
 46 48  1  0  0  0  0
 46 49  1  0  0  0  0
 47 50  1  0  0  0  0
 47 51  1  0  0  0  0
 51 52  1  0  0  0  0
 51 53  1  0  0  0  0
 51 54  1  0  0  0  0
 50 55  1  0  0  0  0
 52 55  1  0  0  0  0
 52 56  1  0  0  0  0
 52 57  1  0  0  0  0
 50 58  1  0  0  0  0
 50 59  1  0  0  0  0
 55 60  1  0  0  0  0
 60 61  1  0  0  0  0
 60 62  1  0  0  0  0
 60 63  1  0  0  0  0
 61 64  1  0  0  0  0
 61 65  1  0  0  0  0
 61 66  1  0  0  0  0
 64 67  1  0  0  0  0
 64 68  1  0  0  0  0
 64 69  1  0  0  0  0
 67 70  1  0  0  0  0
 67 71  1  0  0  0  0
 67 72  1  0  0  0  0
 55 73  1  0  0  0  0
 74 75  2  0  0  0  0
 74 76  1  0  0  0  0
 74 77  1  0  0  0  0
 75 78  1  0  0  0  0
 75 79  1  0  0  0  0
 78 80  4  0  0  0  0
 80 81  4  0  0  0  0
 81 82  4  0  0  0  0
 78 83  4  0  0  0  0
 82 84  4  0  0  0  0
 83 84  4  0  0  0  0
 83 85  1  0  0  0  0
 84 86  1  0  0  0  0
 81 87  1  0  0  0  0
 80 88  1  0  0  0  0
 82 89  1  0  0  0  0
 89 90  1  0  0  0  0
 89 91  1  0  0  0  0
 89 92  1  0  0  0  0
 90 93  1  0  0  0  0
 90 94  1  0  0  0  0
 94 95  1  0  0  0  0
 94 96  1  0  0  0  0
 94 97  1  0  0  0  0
 93 98  1  0  0  0  0
 95 98  1  0  0  0  0
 95 99  1  0  0  0  0
 95100  1  0  0  0  0
 93101  1  0  0  0  0
 93102  1  0  0  0  0
 98103  1  0  0  0  0
103104  1  0  0  0  0
103105  1  0  0  0  0
103106  1  0  0  0  0
104107  1  0  0  0  0
104108  1  0  0  0  0
104109  1  0  0  0  0
107110  1  0  0  0  0
107111  1  0  0  0  0
107112  1  0  0  0  0
110113  1  0  0  0  0
110114  1  0  0  0  0
110115  1  0  0  0  0
 98116  1  0  0  0  0
M  END
