 xtb: 6.7.1 (edcfbbe)
          10212513433D

116116  0     0  0            999 V2000
    7.0891   12.5116    7.3005 C   0  0  0  0  0  0  0  0  0  0  0  0
    3.2208   10.7826    5.0851 C   0  0  0  0  0  0  0  0  0  0  0  0
    6.9274   13.7091    6.7797 F   0  0  0  0  0  0  0  0  0  0  0  0
    6.3958   12.4121    8.4397 F   0  0  0  0  0  0  0  0  0  0  0  0
    8.3837   12.4037    7.6469 F   0  0  0  0  0  0  0  0  0  0  0  0
    2.8482    9.5099    5.2467 F   0  0  0  0  0  0  0  0  0  0  0  0
    2.1177   11.5112    4.9256 F   0  0  0  0  0  0  0  0  0  0  0  0
    3.9405   10.8740    3.9780 F   0  0  0  0  0  0  0  0  0  0  0  0
    6.6778   11.0572    6.1546 S   0  0  0  0  0  0  0  0  0  0  0  0
    4.1210   11.3215    6.6414 S   0  0  0  0  0  0  0  0  0  0  0  0
    5.3943   10.3772    6.7640 N   0  0  0  0  0  0  0  0  0  0  0  0
    6.5587   11.5546    4.8283 O   0  0  0  0  0  0  0  0  0  0  0  0
    7.8118   10.1791    6.3776 O   0  0  0  0  0  0  0  0  0  0  0  0
    3.1819   10.9910    7.6760 O   0  0  0  0  0  0  0  0  0  0  0  0
    4.4995   12.6873    6.4850 O   0  0  0  0  0  0  0  0  0  0  0  0
    4.2785    6.9267    3.3066 C   0  0  0  0  0  0  0  0  0  0  0  0
    2.2083    3.0567    5.6555 C   0  0  0  0  0  0  0  0  0  0  0  0
    4.6327    8.1985    3.5408 F   0  0  0  0  0  0  0  0  0  0  0  0
    5.1087    6.4724    2.3633 F   0  0  0  0  0  0  0  0  0  0  0  0
    3.0501    6.9291    2.8069 F   0  0  0  0  0  0  0  0  0  0  0  0
    1.6086    2.5516    4.5800 F   0  0  0  0  0  0  0  0  0  0  0  0
    2.0197    2.2004    6.6653 F   0  0  0  0  0  0  0  0  0  0  0  0
    1.5742    4.1879    5.9769 F   0  0  0  0  0  0  0  0  0  0  0  0
    4.4505    5.9202    4.8761 S   0  0  0  0  0  0  0  0  0  0  0  0
    4.0436    3.3566    5.3446 S   0  0  0  0  0  0  0  0  0  0  0  0
    4.0143    4.5306    4.2914 N   0  0  0  0  0  0  0  0  0  0  0  0
    5.8498    6.0474    5.1824 O   0  0  0  0  0  0  0  0  0  0  0  0
    3.5607    6.5241    5.8236 O   0  0  0  0  0  0  0  0  0  0  0  0
    4.4926    2.1134    4.8066 O   0  0  0  0  0  0  0  0  0  0  0  0
    4.5676    3.7735    6.6118 O   0  0  0  0  0  0  0  0  0  0  0  0
    8.5617    4.1973   10.3281 C   0  0  0  0  0  0  0  0  0  0  0  0
    7.3540    3.6767   10.5073 C   0  0  0  0  0  0  0  0  0  0  0  0
    9.4415    3.7255   10.7301 H   0  0  0  0  0  0  0  0  0  0  0  0
    8.7225    5.1139    9.7865 H   0  0  0  0  0  0  0  0  0  0  0  0
    6.0983    4.2261   10.0093 C   0  0  0  0  0  0  0  0  0  0  0  0
    7.2530    2.7670   11.0854 H   0  0  0  0  0  0  0  0  0  0  0  0
    4.8933    3.7664   10.5418 C   0  0  0  0  0  0  0  0  0  0  0  0
    3.6822    4.2620   10.0975 C   0  0  0  0  0  0  0  0  0  0  0  0
    3.6307    5.2228    9.0953 C   0  0  0  0  0  0  0  0  0  0  0  0
    6.0432    5.1778    8.9906 C   0  0  0  0  0  0  0  0  0  0  0  0
    4.8323    5.6687    8.5380 C   0  0  0  0  0  0  0  0  0  0  0  0
    6.9498    5.5091    8.5092 H   0  0  0  0  0  0  0  0  0  0  0  0
    4.8142    6.3079    7.6670 H   0  0  0  0  0  0  0  0  0  0  0  0
    2.7646    3.8709   10.5144 H   0  0  0  0  0  0  0  0  0  0  0  0
    4.9092    3.0045   11.3081 H   0  0  0  0  0  0  0  0  0  0  0  0
    2.3153    5.7906    8.6230 C   0  0  0  0  0  0  0  0  0  0  0  0
    1.9541    7.0826    9.2117 N   0  0  0  0  0  0  0  0  0  0  0  0
    1.5032    5.0989    8.8559 H   0  0  0  0  0  0  0  0  0  0  0  0
    2.3537    5.9330    7.5431 H   0  0  0  0  0  0  0  0  0  0  0  0
    2.7347    8.1853    8.7960 C   0  0  0  0  0  0  0  0  0  0  0  0
    1.9993    7.1428   10.6549 C   0  0  0  0  0  0  0  0  0  0  0  0
    3.4323    7.6233   11.0011 C   0  0  0  0  0  0  0  0  0  0  0  0
    1.7674    6.1763   11.0960 H   0  0  0  0  0  0  0  0  0  0  0  0
    1.2637    7.8745   10.9980 H   0  0  0  0  0  0  0  0  0  0  0  0
    3.9581    8.1673    9.7272 N   0  0  0  0  0  0  0  0  0  0  0  0
    4.0545    6.7974   11.3451 H   0  0  0  0  0  0  0  0  0  0  0  0
    3.4168    8.4015   11.7624 H   0  0  0  0  0  0  0  0  0  0  0  0
    2.2189    9.1345    8.9633 H   0  0  0  0  0  0  0  0  0  0  0  0
    3.0412    8.1184    7.7521 H   0  0  0  0  0  0  0  0  0  0  0  0
    4.7275    9.4273    9.8155 C   0  0  0  0  0  0  0  0  0  0  0  0
    6.2242    9.1865    9.6725 C   0  0  0  0  0  0  0  0  0  0  0  0
    4.5047    9.9150   10.7661 H   0  0  0  0  0  0  0  0  0  0  0  0
    4.3994   10.0835    9.0076 H   0  0  0  0  0  0  0  0  0  0  0  0
    6.8207    8.2779   10.7486 C   0  0  0  0  0  0  0  0  0  0  0  0
    6.7140   10.1591    9.7181 H   0  0  0  0  0  0  0  0  0  0  0  0
    6.4192    8.7849    8.6767 H   0  0  0  0  0  0  0  0  0  0  0  0
    8.3338    8.1814   10.5971 C   0  0  0  0  0  0  0  0  0  0  0  0
    6.4019    7.2706   10.6821 H   0  0  0  0  0  0  0  0  0  0  0  0
    6.5828    8.6785   11.7365 H   0  0  0  0  0  0  0  0  0  0  0  0
    8.7909    9.1626   10.6928 H   0  0  0  0  0  0  0  0  0  0  0  0
    8.5856    7.7836    9.6176 H   0  0  0  0  0  0  0  0  0  0  0  0
    8.7533    7.5271   11.3569 H   0  0  0  0  0  0  0  0  0  0  0  0
    4.5638    7.4378    9.3002 H   0  0  0  0  0  0  0  0  0  0  0  0
    6.0110    3.5658    0.8686 C   0  0  0  0  0  0  0  0  0  0  0  0
    6.2407    3.4089    2.1672 C   0  0  0  0  0  0  0  0  0  0  0  0
    5.1260    3.1601    0.4107 H   0  0  0  0  0  0  0  0  0  0  0  0
    6.6780    4.0964    0.2104 H   0  0  0  0  0  0  0  0  0  0  0  0
    7.3982    3.9041    2.9013 C   0  0  0  0  0  0  0  0  0  0  0  0
    5.5244    2.8746    2.7759 H   0  0  0  0  0  0  0  0  0  0  0  0
    7.4601    3.6875    4.2803 C   0  0  0  0  0  0  0  0  0  0  0  0
    8.5371    4.1312    5.0213 C   0  0  0  0  0  0  0  0  0  0  0  0
    9.5932    4.8043    4.4145 C   0  0  0  0  0  0  0  0  0  0  0  0
    8.4670    4.5658    2.2941 C   0  0  0  0  0  0  0  0  0  0  0  0
    9.5460    5.0021    3.0381 C   0  0  0  0  0  0  0  0  0  0  0  0
    8.4629    4.7330    1.2286 H   0  0  0  0  0  0  0  0  0  0  0  0
   10.3752    5.4869    2.5383 H   0  0  0  0  0  0  0  0  0  0  0  0
    8.5613    3.9339    6.0837 H   0  0  0  0  0  0  0  0  0  0  0  0
    6.6529    3.1648    4.7688 H   0  0  0  0  0  0  0  0  0  0  0  0
   10.7591    5.3179    5.2188 C   0  0  0  0  0  0  0  0  0  0  0  0
   10.5882    6.6310    5.8445 N   0  0  0  0  0  0  0  0  0  0  0  0
   11.6434    5.3986    4.5803 H   0  0  0  0  0  0  0  0  0  0  0  0
   10.9957    4.6239    6.0275 H   0  0  0  0  0  0  0  0  0  0  0  0
   10.2718    7.7279    4.9915 C   0  0  0  0  0  0  0  0  0  0  0  0
    9.6425    6.7314    6.9355 C   0  0  0  0  0  0  0  0  0  0  0  0
    8.3339    7.2221    6.2972 C   0  0  0  0  0  0  0  0  0  0  0  0
   10.0232    7.4762    7.6444 H   0  0  0  0  0  0  0  0  0  0  0  0
    9.5330    5.7760    7.4433 H   0  0  0  0  0  0  0  0  0  0  0  0
    8.7917    8.0335    5.1391 N   0  0  0  0  0  0  0  0  0  0  0  0
    7.7503    7.8622    6.9565 H   0  0  0  0  0  0  0  0  0  0  0  0
    7.7084    6.4005    5.9448 H   0  0  0  0  0  0  0  0  0  0  0  0
   10.5248    7.5136    3.9552 H   0  0  0  0  0  0  0  0  0  0  0  0
   10.8137    8.6197    5.3269 H   0  0  0  0  0  0  0  0  0  0  0  0
    7.9465    7.8588    3.9349 C   0  0  0  0  0  0  0  0  0  0  0  0
    8.4631    8.5924    2.7017 C   0  0  0  0  0  0  0  0  0  0  0  0
    6.9628    8.2453    4.2021 H   0  0  0  0  0  0  0  0  0  0  0  0
    7.8481    6.7921    3.7256 H   0  0  0  0  0  0  0  0  0  0  0  0
    8.7482   10.0774    2.9258 C   0  0  0  0  0  0  0  0  0  0  0  0
    7.6874    8.4944    1.9409 H   0  0  0  0  0  0  0  0  0  0  0  0
    9.3557    8.1029    2.3039 H   0  0  0  0  0  0  0  0  0  0  0  0
    9.1076   10.7638    1.6120 C   0  0  0  0  0  0  0  0  0  0  0  0
    9.5793   10.2019    3.6245 H   0  0  0  0  0  0  0  0  0  0  0  0
    7.8718   10.5606    3.3571 H   0  0  0  0  0  0  0  0  0  0  0  0
    9.3185   11.8155    1.7824 H   0  0  0  0  0  0  0  0  0  0  0  0
    8.2824   10.6918    0.9089 H   0  0  0  0  0  0  0  0  0  0  0  0
    9.9859   10.3035    1.1613 H   0  0  0  0  0  0  0  0  0  0  0  0
    8.6507    9.0219    5.4332 H   0  0  0  0  0  0  0  0  0  0  0  0
  1  3  1  0  0  0  0
  1  4  1  0  0  0  0
  1  5  1  0  0  0  0
  2  6  1  0  0  0  0
  2  7  1  0  0  0  0
  2  8  1  0  0  0  0
  1  9  1  0  0  0  0
  2 10  1  0  0  0  0
  9 11  1  0  0  0  0
 10 11  1  0  0  0  0
  9 12  2  0  0  0  0
  9 13  2  0  0  0  0
 10 14  2  0  0  0  0
 10 15  2  0  0  0  0
 16 18  1  0  0  0  0
 16 19  1  0  0  0  0
 16 20  1  0  0  0  0
 17 21  1  0  0  0  0
 17 22  1  0  0  0  0
 17 23  1  0  0  0  0
 16 24  1  0  0  0  0
 17 25  1  0  0  0  0
 24 26  1  0  0  0  0
 25 26  1  0  0  0  0
 24 27  2  0  0  0  0
 24 28  2  0  0  0  0
 25 29  2  0  0  0  0
 25 30  2  0  0  0  0
 31 32  2  0  0  0  0
 31 33  1  0  0  0  0
 31 34  1  0  0  0  0
 32 35  1  0  0  0  0
 32 36  1  0  0  0  0
 35 37  4  0  0  0  0
 37 38  4  0  0  0  0
 38 39  4  0  0  0  0
 35 40  4  0  0  0  0
 39 41  4  0  0  0  0
 40 41  4  0  0  0  0
 40 42  1  0  0  0  0
 41 43  1  0  0  0  0
 38 44  1  0  0  0  0
 37 45  1  0  0  0  0
 39 46  1  0  0  0  0
 46 47  1  0  0  0  0
 46 48  1  0  0  0  0
 46 49  1  0  0  0  0
 47 50  1  0  0  0  0
 47 51  1  0  0  0  0
 51 52  1  0  0  0  0
 51 53  1  0  0  0  0
 51 54  1  0  0  0  0
 50 55  1  0  0  0  0
 52 55  1  0  0  0  0
 52 56  1  0  0  0  0
 52 57  1  0  0  0  0
 50 58  1  0  0  0  0
 50 59  1  0  0  0  0
 55 60  1  0  0  0  0
 60 61  1  0  0  0  0
 60 62  1  0  0  0  0
 60 63  1  0  0  0  0
 61 64  1  0  0  0  0
 61 65  1  0  0  0  0
 61 66  1  0  0  0  0
 64 67  1  0  0  0  0
 64 68  1  0  0  0  0
 64 69  1  0  0  0  0
 67 70  1  0  0  0  0
 67 71  1  0  0  0  0
 67 72  1  0  0  0  0
 55 73  1  0  0  0  0
 74 75  2  0  0  0  0
 74 76  1  0  0  0  0
 74 77  1  0  0  0  0
 75 78  1  0  0  0  0
 75 79  1  0  0  0  0
 78 80  4  0  0  0  0
 80 81  4  0  0  0  0
 81 82  4  0  0  0  0
 78 83  4  0  0  0  0
 82 84  4  0  0  0  0
 83 84  4  0  0  0  0
 83 85  1  0  0  0  0
 84 86  1  0  0  0  0
 81 87  1  0  0  0  0
 80 88  1  0  0  0  0
 82 89  1  0  0  0  0
 89 90  1  0  0  0  0
 89 91  1  0  0  0  0
 89 92  1  0  0  0  0
 90 93  1  0  0  0  0
 90 94  1  0  0  0  0
 94 95  1  0  0  0  0
 94 96  1  0  0  0  0
 94 97  1  0  0  0  0
 93 98  1  0  0  0  0
 95 98  1  0  0  0  0
 95 99  1  0  0  0  0
 95100  1  0  0  0  0
 93101  1  0  0  0  0
 93102  1  0  0  0  0
 98103  1  0  0  0  0
103104  1  0  0  0  0
103105  1  0  0  0  0
103106  1  0  0  0  0
104107  1  0  0  0  0
104108  1  0  0  0  0
104109  1  0  0  0  0
107110  1  0  0  0  0
107111  1  0  0  0  0
107112  1  0  0  0  0
110113  1  0  0  0  0
110114  1  0  0  0  0
110115  1  0  0  0  0
 98116  1  0  0  0  0
M  END
