 xtb: 6.7.1 (edcfbbe)
          10212513463D

116116  0     0  0            999 V2000
    0.5893    2.8396    9.1468 C   0  0  0  0  0  0  0  0  0  0  0  0
    4.6221    3.7886    8.2130 C   0  0  0  0  0  0  0  0  0  0  0  0
   -0.5161    3.4051    8.6532 F   0  0  0  0  0  0  0  0  0  0  0  0
    1.1443    2.1382    8.1566 F   0  0  0  0  0  0  0  0  0  0  0  0
    0.2101    1.9765   10.0894 F   0  0  0  0  0  0  0  0  0  0  0  0
    5.3697    3.8723    7.0854 F   0  0  0  0  0  0  0  0  0  0  0  0
    5.4577    3.6006    9.2165 F   0  0  0  0  0  0  0  0  0  0  0  0
    3.8803    2.6905    8.0467 F   0  0  0  0  0  0  0  0  0  0  0  0
    1.7422    4.1820    9.8076 S   0  0  0  0  0  0  0  0  0  0  0  0
    3.5618    5.3713    8.3714 S   0  0  0  0  0  0  0  0  0  0  0  0
    2.0877    4.8552    8.4008 N   0  0  0  0  0  0  0  0  0  0  0  0
    0.9047    4.9468   10.6676 O   0  0  0  0  0  0  0  0  0  0  0  0
    2.8788    3.5221   10.3623 O   0  0  0  0  0  0  0  0  0  0  0  0
    3.8110    6.0049    7.0928 O   0  0  0  0  0  0  0  0  0  0  0  0
    4.0445    6.0383    9.5257 O   0  0  0  0  0  0  0  0  0  0  0  0
    9.8327    6.8310    4.6103 C   0  0  0  0  0  0  0  0  0  0  0  0
    6.9753    7.0353    8.8070 C   0  0  0  0  0  0  0  0  0  0  0  0
   10.8899    6.7059    3.8081 F   0  0  0  0  0  0  0  0  0  0  0  0
    8.9645    5.8665    4.2949 F   0  0  0  0  0  0  0  0  0  0  0  0
    9.2503    7.9993    4.3236 F   0  0  0  0  0  0  0  0  0  0  0  0
    6.1510    7.9055    9.3700 F   0  0  0  0  0  0  0  0  0  0  0  0
    6.3069    6.2183    7.9999 F   0  0  0  0  0  0  0  0  0  0  0  0
    7.5598    6.3138    9.7516 F   0  0  0  0  0  0  0  0  0  0  0  0
   10.2917    6.7836    6.4363 S   0  0  0  0  0  0  0  0  0  0  0  0
    8.2511    7.8964    7.7665 S   0  0  0  0  0  0  0  0  0  0  0  0
    8.8951    6.6150    7.1192 N   0  0  0  0  0  0  0  0  0  0  0  0
   11.1636    5.6692    6.5861 O   0  0  0  0  0  0  0  0  0  0  0  0
   10.8744    8.0854    6.6652 O   0  0  0  0  0  0  0  0  0  0  0  0
    9.1203    8.5836    8.6939 O   0  0  0  0  0  0  0  0  0  0  0  0
    7.5480    8.7384    6.8487 O   0  0  0  0  0  0  0  0  0  0  0  0
    5.2985    6.2475   12.1842 C   0  0  0  0  0  0  0  0  0  0  0  0
    5.6678    7.5087   12.3734 C   0  0  0  0  0  0  0  0  0  0  0  0
    4.2648    5.9518   12.1746 H   0  0  0  0  0  0  0  0  0  0  0  0
    6.0073    5.4630   11.9826 H   0  0  0  0  0  0  0  0  0  0  0  0
    7.0366    8.0140   12.3616 C   0  0  0  0  0  0  0  0  0  0  0  0
    4.9112    8.2682   12.5285 H   0  0  0  0  0  0  0  0  0  0  0  0
    8.1492    7.1884   12.5284 C   0  0  0  0  0  0  0  0  0  0  0  0
    9.4274    7.7090   12.5231 C   0  0  0  0  0  0  0  0  0  0  0  0
    9.6448    9.0724   12.3566 C   0  0  0  0  0  0  0  0  0  0  0  0
    7.2606    9.3815   12.1961 C   0  0  0  0  0  0  0  0  0  0  0  0
    8.5401    9.9004   12.1898 C   0  0  0  0  0  0  0  0  0  0  0  0
    6.4163   10.0441   12.0711 H   0  0  0  0  0  0  0  0  0  0  0  0
    8.6830   10.9680   12.0832 H   0  0  0  0  0  0  0  0  0  0  0  0
   10.2713    7.0505   12.6761 H   0  0  0  0  0  0  0  0  0  0  0  0
    8.0079    6.1301   12.6775 H   0  0  0  0  0  0  0  0  0  0  0  0
   11.0409    9.6420   12.3548 C   0  0  0  0  0  0  0  0  0  0  0  0
   11.7142    9.6627   11.0594 N   0  0  0  0  0  0  0  0  0  0  0  0
   11.6843    9.0646   13.0223 H   0  0  0  0  0  0  0  0  0  0  0  0
   11.0213   10.6768   12.7096 H   0  0  0  0  0  0  0  0  0  0  0  0
   11.0173   10.3985   10.0202 C   0  0  0  0  0  0  0  0  0  0  0  0
   12.0358    8.3754   10.4651 C   0  0  0  0  0  0  0  0  0  0  0  0
   12.5245    8.8301    9.1005 C   0  0  0  0  0  0  0  0  0  0  0  0
   11.1607    7.7193   10.3554 H   0  0  0  0  0  0  0  0  0  0  0  0
   12.8063    7.8757   11.0515 H   0  0  0  0  0  0  0  0  0  0  0  0
   11.4918    9.8270    8.7316 N   0  0  0  0  0  0  0  0  0  0  0  0
   12.5635    8.0455    8.3473 H   0  0  0  0  0  0  0  0  0  0  0  0
   13.4878    9.3365    9.1936 H   0  0  0  0  0  0  0  0  0  0  0  0
   11.2755   11.4607   10.0896 H   0  0  0  0  0  0  0  0  0  0  0  0
    9.9278   10.2689   10.0754 H   0  0  0  0  0  0  0  0  0  0  0  0
   11.9151   10.7893    7.6945 C   0  0  0  0  0  0  0  0  0  0  0  0
   10.7698   11.1858    6.7676 C   0  0  0  0  0  0  0  0  0  0  0  0
   12.6775   10.2972    7.0886 H   0  0  0  0  0  0  0  0  0  0  0  0
   12.3584   11.6602    8.1856 H   0  0  0  0  0  0  0  0  0  0  0  0
    9.6078   11.9118    7.4409 C   0  0  0  0  0  0  0  0  0  0  0  0
   10.3930   10.2772    6.2964 H   0  0  0  0  0  0  0  0  0  0  0  0
   11.1832   11.8241    5.9838 H   0  0  0  0  0  0  0  0  0  0  0  0
    8.5131   12.2108    6.4227 C   0  0  0  0  0  0  0  0  0  0  0  0
    9.9600   12.8420    7.8950 H   0  0  0  0  0  0  0  0  0  0  0  0
    9.1785   11.2816    8.2192 H   0  0  0  0  0  0  0  0  0  0  0  0
    8.9049   12.7941    5.5923 H   0  0  0  0  0  0  0  0  0  0  0  0
    7.7042   12.7697    6.8855 H   0  0  0  0  0  0  0  0  0  0  0  0
    8.1109   11.2763    6.0396 H   0  0  0  0  0  0  0  0  0  0  0  0
   10.6931    9.2756    8.3407 H   0  0  0  0  0  0  0  0  0  0  0  0
    1.9121    7.8354   10.7102 C   0  0  0  0  0  0  0  0  0  0  0  0
    1.3626    7.8243    9.5019 C   0  0  0  0  0  0  0  0  0  0  0  0
    1.3448    7.5332   11.5726 H   0  0  0  0  0  0  0  0  0  0  0  0
    2.9444    8.0897   10.8724 H   0  0  0  0  0  0  0  0  0  0  0  0
    2.0287    8.1627    8.2530 C   0  0  0  0  0  0  0  0  0  0  0  0
    0.3312    7.5116    9.3998 H   0  0  0  0  0  0  0  0  0  0  0  0
    3.3214    8.6851    8.1965 C   0  0  0  0  0  0  0  0  0  0  0  0
    3.9267    8.9608    6.9870 C   0  0  0  0  0  0  0  0  0  0  0  0
    3.2503    8.7567    5.7890 C   0  0  0  0  0  0  0  0  0  0  0  0
    1.3514    7.9692    7.0489 C   0  0  0  0  0  0  0  0  0  0  0  0
    1.9463    8.2740    5.8419 C   0  0  0  0  0  0  0  0  0  0  0  0
    0.3455    7.5749    7.0666 H   0  0  0  0  0  0  0  0  0  0  0  0
    1.3758    8.1610    4.9276 H   0  0  0  0  0  0  0  0  0  0  0  0
    4.9377    9.3448    6.9734 H   0  0  0  0  0  0  0  0  0  0  0  0
    3.8658    8.8643    9.1077 H   0  0  0  0  0  0  0  0  0  0  0  0
    3.8992    9.0743    4.4646 C   0  0  0  0  0  0  0  0  0  0  0  0
    4.5887    7.9747    3.7884 N   0  0  0  0  0  0  0  0  0  0  0  0
    4.6417    9.8632    4.5918 H   0  0  0  0  0  0  0  0  0  0  0  0
    3.1414    9.4336    3.7603 H   0  0  0  0  0  0  0  0  0  0  0  0
    3.8392    6.7854    3.5583 C   0  0  0  0  0  0  0  0  0  0  0  0
    5.8763    7.5597    4.3481 C   0  0  0  0  0  0  0  0  0  0  0  0
    5.7791    6.0404    4.5513 C   0  0  0  0  0  0  0  0  0  0  0  0
    6.0823    8.0704    5.2888 H   0  0  0  0  0  0  0  0  0  0  0  0
    6.6739    7.8113    3.6440 H   0  0  0  0  0  0  0  0  0  0  0  0
    4.3240    5.7739    4.5478 N   0  0  0  0  0  0  0  0  0  0  0  0
    6.2272    5.7150    5.4862 H   0  0  0  0  0  0  0  0  0  0  0  0
    6.2352    5.5033    3.7166 H   0  0  0  0  0  0  0  0  0  0  0  0
    4.0787    6.3827    2.5617 H   0  0  0  0  0  0  0  0  0  0  0  0
    2.7674    6.9517    3.6352 H   0  0  0  0  0  0  0  0  0  0  0  0
    3.9533    4.3690    4.2761 C   0  0  0  0  0  0  0  0  0  0  0  0
    2.6624    3.9416    4.9724 C   0  0  0  0  0  0  0  0  0  0  0  0
    4.7647    3.7402    4.6440 H   0  0  0  0  0  0  0  0  0  0  0  0
    3.8717    4.2373    3.1921 H   0  0  0  0  0  0  0  0  0  0  0  0
    1.3931    4.6182    4.4619 C   0  0  0  0  0  0  0  0  0  0  0  0
    2.7421    4.1374    6.0423 H   0  0  0  0  0  0  0  0  0  0  0  0
    2.5626    2.8624    4.8431 H   0  0  0  0  0  0  0  0  0  0  0  0
    0.1725    4.0506    5.1756 C   0  0  0  0  0  0  0  0  0  0  0  0
    1.2974    4.4749    3.3815 H   0  0  0  0  0  0  0  0  0  0  0  0
    1.4373    5.6858    4.6744 H   0  0  0  0  0  0  0  0  0  0  0  0
   -0.7382    4.5187    4.8104 H   0  0  0  0  0  0  0  0  0  0  0  0
    0.2585    4.2371    6.2427 H   0  0  0  0  0  0  0  0  0  0  0  0
    0.0961    2.9778    5.0174 H   0  0  0  0  0  0  0  0  0  0  0  0
    3.9834    5.9980    5.5206 H   0  0  0  0  0  0  0  0  0  0  0  0
  1  3  1  0  0  0  0
  1  4  1  0  0  0  0
  1  5  1  0  0  0  0
  2  6  1  0  0  0  0
  2  7  1  0  0  0  0
  2  8  1  0  0  0  0
  1  9  1  0  0  0  0
  2 10  1  0  0  0  0
  9 11  1  0  0  0  0
 10 11  1  0  0  0  0
  9 12  2  0  0  0  0
  9 13  2  0  0  0  0
 10 14  2  0  0  0  0
 10 15  2  0  0  0  0
 16 18  1  0  0  0  0
 16 19  1  0  0  0  0
 16 20  1  0  0  0  0
 17 21  1  0  0  0  0
 17 22  1  0  0  0  0
 17 23  1  0  0  0  0
 16 24  1  0  0  0  0
 17 25  1  0  0  0  0
 24 26  1  0  0  0  0
 25 26  1  0  0  0  0
 24 27  2  0  0  0  0
 24 28  2  0  0  0  0
 25 29  2  0  0  0  0
 25 30  2  0  0  0  0
 31 32  2  0  0  0  0
 31 33  1  0  0  0  0
 31 34  1  0  0  0  0
 32 35  1  0  0  0  0
 32 36  1  0  0  0  0
 35 37  4  0  0  0  0
 37 38  4  0  0  0  0
 38 39  4  0  0  0  0
 35 40  4  0  0  0  0
 39 41  4  0  0  0  0
 40 41  4  0  0  0  0
 40 42  1  0  0  0  0
 41 43  1  0  0  0  0
 38 44  1  0  0  0  0
 37 45  1  0  0  0  0
 39 46  1  0  0  0  0
 46 47  1  0  0  0  0
 46 48  1  0  0  0  0
 46 49  1  0  0  0  0
 47 50  1  0  0  0  0
 47 51  1  0  0  0  0
 51 52  1  0  0  0  0
 51 53  1  0  0  0  0
 51 54  1  0  0  0  0
 50 55  1  0  0  0  0
 52 55  1  0  0  0  0
 52 56  1  0  0  0  0
 52 57  1  0  0  0  0
 50 58  1  0  0  0  0
 50 59  1  0  0  0  0
 55 60  1  0  0  0  0
 60 61  1  0  0  0  0
 60 62  1  0  0  0  0
 60 63  1  0  0  0  0
 61 64  1  0  0  0  0
 61 65  1  0  0  0  0
 61 66  1  0  0  0  0
 64 67  1  0  0  0  0
 64 68  1  0  0  0  0
 64 69  1  0  0  0  0
 67 70  1  0  0  0  0
 67 71  1  0  0  0  0
 67 72  1  0  0  0  0
 55 73  1  0  0  0  0
 74 75  2  0  0  0  0
 74 76  1  0  0  0  0
 74 77  1  0  0  0  0
 75 78  1  0  0  0  0
 75 79  1  0  0  0  0
 78 80  4  0  0  0  0
 80 81  4  0  0  0  0
 81 82  4  0  0  0  0
 78 83  4  0  0  0  0
 82 84  4  0  0  0  0
 83 84  4  0  0  0  0
 83 85  1  0  0  0  0
 84 86  1  0  0  0  0
 81 87  1  0  0  0  0
 80 88  1  0  0  0  0
 82 89  1  0  0  0  0
 89 90  1  0  0  0  0
 89 91  1  0  0  0  0
 89 92  1  0  0  0  0
 90 93  1  0  0  0  0
 90 94  1  0  0  0  0
 94 95  1  0  0  0  0
 94 96  1  0  0  0  0
 94 97  1  0  0  0  0
 93 98  1  0  0  0  0
 95 98  1  0  0  0  0
 95 99  1  0  0  0  0
 95100  1  0  0  0  0
 93101  1  0  0  0  0
 93102  1  0  0  0  0
 98103  1  0  0  0  0
103104  1  0  0  0  0
103105  1  0  0  0  0
103106  1  0  0  0  0
104107  1  0  0  0  0
104108  1  0  0  0  0
104109  1  0  0  0  0
107110  1  0  0  0  0
107111  1  0  0  0  0
107112  1  0  0  0  0
110113  1  0  0  0  0
110114  1  0  0  0  0
110115  1  0  0  0  0
 98116  1  0  0  0  0
M  END
