 xtb: 6.7.1 (edcfbbe)
          10212513293D

116116  0     0  0            999 V2000
    5.9769    1.8609    5.0126 C   0  0  0  0  0  0  0  0  0  0  0  0
    1.9921    2.1267    3.4202 C   0  0  0  0  0  0  0  0  0  0  0  0
    7.0836    1.1568    4.7934 F   0  0  0  0  0  0  0  0  0  0  0  0
    5.8619    2.7747    4.0617 F   0  0  0  0  0  0  0  0  0  0  0  0
    6.1531    2.5106    6.1791 F   0  0  0  0  0  0  0  0  0  0  0  0
    3.1067    2.8027    3.1442 F   0  0  0  0  0  0  0  0  0  0  0  0
    1.8246    1.1622    2.5383 F   0  0  0  0  0  0  0  0  0  0  0  0
    0.9813    2.9891    3.2684 F   0  0  0  0  0  0  0  0  0  0  0  0
    4.4391    0.7741    5.1108 S   0  0  0  0  0  0  0  0  0  0  0  0
    1.9727    1.5277    5.2099 S   0  0  0  0  0  0  0  0  0  0  0  0
    3.4355    1.8104    5.8030 N   0  0  0  0  0  0  0  0  0  0  0  0
    4.0945    0.4649    3.7710 O   0  0  0  0  0  0  0  0  0  0  0  0
    4.8280   -0.2707    6.0089 O   0  0  0  0  0  0  0  0  0  0  0  0
    1.6892    0.1287    5.2315 O   0  0  0  0  0  0  0  0  0  0  0  0
    1.0134    2.3687    5.8594 O   0  0  0  0  0  0  0  0  0  0  0  0
   12.0818   10.7691    9.2233 C   0  0  0  0  0  0  0  0  0  0  0  0
    7.7909   11.9747    8.3691 C   0  0  0  0  0  0  0  0  0  0  0  0
   11.3942   11.7572    9.7920 F   0  0  0  0  0  0  0  0  0  0  0  0
   12.9428   10.3097   10.1384 F   0  0  0  0  0  0  0  0  0  0  0  0
   12.7913   11.2523    8.2183 F   0  0  0  0  0  0  0  0  0  0  0  0
    6.7309   11.1979    8.6323 F   0  0  0  0  0  0  0  0  0  0  0  0
    8.1922   12.4985    9.5235 F   0  0  0  0  0  0  0  0  0  0  0  0
    7.3705   12.9671    7.5873 F   0  0  0  0  0  0  0  0  0  0  0  0
   10.9136    9.3861    8.6970 S   0  0  0  0  0  0  0  0  0  0  0  0
    9.1280   10.9267    7.5542 S   0  0  0  0  0  0  0  0  0  0  0  0
    9.4595    9.9888    8.8011 N   0  0  0  0  0  0  0  0  0  0  0  0
   11.2708    9.0015    7.3653 O   0  0  0  0  0  0  0  0  0  0  0  0
   11.0543    8.3537    9.6934 O   0  0  0  0  0  0  0  0  0  0  0  0
   10.1943   11.7953    7.2001 O   0  0  0  0  0  0  0  0  0  0  0  0
    8.4109   10.2184    6.5358 O   0  0  0  0  0  0  0  0  0  0  0  0
   11.8874    2.0831    1.2702 C   0  0  0  0  0  0  0  0  0  0  0  0
   10.6827    2.4732    1.6677 C   0  0  0  0  0  0  0  0  0  0  0  0
   12.0788    1.8134    0.2459 H   0  0  0  0  0  0  0  0  0  0  0  0
   12.7308    2.0274    1.9370 H   0  0  0  0  0  0  0  0  0  0  0  0
   10.3071    2.8725    3.0189 C   0  0  0  0  0  0  0  0  0  0  0  0
    9.8815    2.5327    0.9417 H   0  0  0  0  0  0  0  0  0  0  0  0
    9.0922    3.5274    3.2190 C   0  0  0  0  0  0  0  0  0  0  0  0
    8.7021    3.9336    4.4799 C   0  0  0  0  0  0  0  0  0  0  0  0
    9.5047    3.6757    5.5831 C   0  0  0  0  0  0  0  0  0  0  0  0
   11.1117    2.6263    4.1328 C   0  0  0  0  0  0  0  0  0  0  0  0
   10.7149    3.0201    5.3934 C   0  0  0  0  0  0  0  0  0  0  0  0
   12.0497    2.1078    4.0126 H   0  0  0  0  0  0  0  0  0  0  0  0
   11.3468    2.8212    6.2460 H   0  0  0  0  0  0  0  0  0  0  0  0
    7.7562    4.4450    4.5982 H   0  0  0  0  0  0  0  0  0  0  0  0
    8.4457    3.7251    2.3768 H   0  0  0  0  0  0  0  0  0  0  0  0
    9.0891    4.1135    6.9603 C   0  0  0  0  0  0  0  0  0  0  0  0
    9.8385    5.3078    7.3589 N   0  0  0  0  0  0  0  0  0  0  0  0
    9.3327    3.3260    7.6790 H   0  0  0  0  0  0  0  0  0  0  0  0
    7.9985    4.2704    6.9722 H   0  0  0  0  0  0  0  0  0  0  0  0
    9.6076    5.7427    8.6799 C   0  0  0  0  0  0  0  0  0  0  0  0
    9.5531    6.4931    6.5691 C   0  0  0  0  0  0  0  0  0  0  0  0
    8.3593    7.1856    7.2791 C   0  0  0  0  0  0  0  0  0  0  0  0
    9.3372    6.2278    5.5367 H   0  0  0  0  0  0  0  0  0  0  0  0
   10.4208    7.1554    6.5932 H   0  0  0  0  0  0  0  0  0  0  0  0
    8.2849    6.5278    8.6105 N   0  0  0  0  0  0  0  0  0  0  0  0
    7.4216    7.0499    6.7424 H   0  0  0  0  0  0  0  0  0  0  0  0
    8.5469    8.2528    7.3873 H   0  0  0  0  0  0  0  0  0  0  0  0
   10.3666    6.4691    8.9945 H   0  0  0  0  0  0  0  0  0  0  0  0
    9.5273    4.9270    9.3993 H   0  0  0  0  0  0  0  0  0  0  0  0
    8.0429    7.4101    9.7662 C   0  0  0  0  0  0  0  0  0  0  0  0
    6.6276    7.9727    9.7621 C   0  0  0  0  0  0  0  0  0  0  0  0
    8.7666    8.2277    9.7338 H   0  0  0  0  0  0  0  0  0  0  0  0
    8.2169    6.8245   10.6729 H   0  0  0  0  0  0  0  0  0  0  0  0
    6.4107    8.8565   10.9900 C   0  0  0  0  0  0  0  0  0  0  0  0
    5.8918    7.1607    9.7624 H   0  0  0  0  0  0  0  0  0  0  0  0
    6.4740    8.5780    8.8688 H   0  0  0  0  0  0  0  0  0  0  0  0
    5.0062    9.4448   11.0138 C   0  0  0  0  0  0  0  0  0  0  0  0
    7.1452    9.6610   10.9668 H   0  0  0  0  0  0  0  0  0  0  0  0
    6.5798    8.2713   11.8971 H   0  0  0  0  0  0  0  0  0  0  0  0
    4.8399   10.0508   10.1282 H   0  0  0  0  0  0  0  0  0  0  0  0
    4.8760   10.0734   11.8900 H   0  0  0  0  0  0  0  0  0  0  0  0
    4.2559    8.6566   11.0421 H   0  0  0  0  0  0  0  0  0  0  0  0
    7.5270    5.8391    8.5805 H   0  0  0  0  0  0  0  0  0  0  0  0
    5.9420    6.3634    3.9516 C   0  0  0  0  0  0  0  0  0  0  0  0
    4.8751    5.5845    4.0700 C   0  0  0  0  0  0  0  0  0  0  0  0
    6.4066    6.5399    2.9975 H   0  0  0  0  0  0  0  0  0  0  0  0
    6.3730    6.8962    4.7839 H   0  0  0  0  0  0  0  0  0  0  0  0
    4.1741    5.2958    5.3193 C   0  0  0  0  0  0  0  0  0  0  0  0
    4.4473    5.1202    3.1928 H   0  0  0  0  0  0  0  0  0  0  0  0
    2.7952    5.0969    5.3125 C   0  0  0  0  0  0  0  0  0  0  0  0
    2.1051    4.8463    6.4812 C   0  0  0  0  0  0  0  0  0  0  0  0
    2.7739    4.7509    7.6954 C   0  0  0  0  0  0  0  0  0  0  0  0
    4.8376    5.2261    6.5413 C   0  0  0  0  0  0  0  0  0  0  0  0
    4.1503    4.9572    7.7077 C   0  0  0  0  0  0  0  0  0  0  0  0
    5.9080    5.3702    6.5659 H   0  0  0  0  0  0  0  0  0  0  0  0
    4.6894    4.9411    8.6485 H   0  0  0  0  0  0  0  0  0  0  0  0
    1.0348    4.7246    6.4479 H   0  0  0  0  0  0  0  0  0  0  0  0
    2.2541    5.1722    4.3819 H   0  0  0  0  0  0  0  0  0  0  0  0
    2.0149    4.4828    8.9727 C   0  0  0  0  0  0  0  0  0  0  0  0
    1.9990    3.1100    9.4730 N   0  0  0  0  0  0  0  0  0  0  0  0
    0.9718    4.7732    8.8464 H   0  0  0  0  0  0  0  0  0  0  0  0
    2.4352    5.0915    9.7813 H   0  0  0  0  0  0  0  0  0  0  0  0
    3.2493    2.4609    9.6451 C   0  0  0  0  0  0  0  0  0  0  0  0
    1.1052    2.1493    8.8269 C   0  0  0  0  0  0  0  0  0  0  0  0
    1.9612    0.9047    8.5317 C   0  0  0  0  0  0  0  0  0  0  0  0
    0.7003    2.5535    7.8986 H   0  0  0  0  0  0  0  0  0  0  0  0
    0.2817    1.9027    9.5033 H   0  0  0  0  0  0  0  0  0  0  0  0
    3.3535    1.4068    8.5788 N   0  0  0  0  0  0  0  0  0  0  0  0
    1.7385    0.4722    7.5573 H   0  0  0  0  0  0  0  0  0  0  0  0
    1.8377    0.1475    9.3089 H   0  0  0  0  0  0  0  0  0  0  0  0
    3.2597    1.9137   10.6005 H   0  0  0  0  0  0  0  0  0  0  0  0
    4.0866    3.1537    9.6076 H   0  0  0  0  0  0  0  0  0  0  0  0
    4.3736    0.3777    8.8749 C   0  0  0  0  0  0  0  0  0  0  0  0
    5.7349    0.9864    9.2127 C   0  0  0  0  0  0  0  0  0  0  0  0
    4.4686   -0.2641    7.9974 H   0  0  0  0  0  0  0  0  0  0  0  0
    4.0190   -0.2153    9.7231 H   0  0  0  0  0  0  0  0  0  0  0  0
    6.8272   -0.0893    9.2895 C   0  0  0  0  0  0  0  0  0  0  0  0
    5.6808    1.4958   10.1776 H   0  0  0  0  0  0  0  0  0  0  0  0
    6.0072    1.7129    8.4474 H   0  0  0  0  0  0  0  0  0  0  0  0
    7.4003   -0.4466    7.9238 C   0  0  0  0  0  0  0  0  0  0  0  0
    6.4175   -0.9828    9.7632 H   0  0  0  0  0  0  0  0  0  0  0  0
    7.6349    0.2763    9.9274 H   0  0  0  0  0  0  0  0  0  0  0  0
    6.6174   -0.7430    7.2332 H   0  0  0  0  0  0  0  0  0  0  0  0
    8.1066   -1.2666    8.0184 H   0  0  0  0  0  0  0  0  0  0  0  0
    7.9245    0.4047    7.4957 H   0  0  0  0  0  0  0  0  0  0  0  0
    3.5370    1.8122    7.6248 H   0  0  0  0  0  0  0  0  0  0  0  0
  1  3  1  0  0  0  0
  1  4  1  0  0  0  0
  1  5  1  0  0  0  0
  2  6  1  0  0  0  0
  2  7  1  0  0  0  0
  2  8  1  0  0  0  0
  1  9  1  0  0  0  0
  2 10  1  0  0  0  0
  9 11  1  0  0  0  0
 10 11  1  0  0  0  0
  9 12  2  0  0  0  0
  9 13  2  0  0  0  0
 10 14  2  0  0  0  0
 10 15  2  0  0  0  0
 16 18  1  0  0  0  0
 16 19  1  0  0  0  0
 16 20  1  0  0  0  0
 17 21  1  0  0  0  0
 17 22  1  0  0  0  0
 17 23  1  0  0  0  0
 16 24  1  0  0  0  0
 17 25  1  0  0  0  0
 24 26  1  0  0  0  0
 25 26  1  0  0  0  0
 24 27  2  0  0  0  0
 24 28  2  0  0  0  0
 25 29  2  0  0  0  0
 25 30  2  0  0  0  0
 31 32  2  0  0  0  0
 31 33  1  0  0  0  0
 31 34  1  0  0  0  0
 32 35  1  0  0  0  0
 32 36  1  0  0  0  0
 35 37  4  0  0  0  0
 37 38  4  0  0  0  0
 38 39  4  0  0  0  0
 35 40  4  0  0  0  0
 39 41  4  0  0  0  0
 40 41  4  0  0  0  0
 40 42  1  0  0  0  0
 41 43  1  0  0  0  0
 38 44  1  0  0  0  0
 37 45  1  0  0  0  0
 39 46  1  0  0  0  0
 46 47  1  0  0  0  0
 46 48  1  0  0  0  0
 46 49  1  0  0  0  0
 47 50  1  0  0  0  0
 47 51  1  0  0  0  0
 51 52  1  0  0  0  0
 51 53  1  0  0  0  0
 51 54  1  0  0  0  0
 50 55  1  0  0  0  0
 52 55  1  0  0  0  0
 52 56  1  0  0  0  0
 52 57  1  0  0  0  0
 50 58  1  0  0  0  0
 50 59  1  0  0  0  0
 55 60  1  0  0  0  0
 60 61  1  0  0  0  0
 60 62  1  0  0  0  0
 60 63  1  0  0  0  0
 61 64  1  0  0  0  0
 61 65  1  0  0  0  0
 61 66  1  0  0  0  0
 64 67  1  0  0  0  0
 64 68  1  0  0  0  0
 64 69  1  0  0  0  0
 67 70  1  0  0  0  0
 67 71  1  0  0  0  0
 67 72  1  0  0  0  0
 55 73  1  0  0  0  0
 74 75  2  0  0  0  0
 74 76  1  0  0  0  0
 74 77  1  0  0  0  0
 75 78  1  0  0  0  0
 75 79  1  0  0  0  0
 78 80  4  0  0  0  0
 80 81  4  0  0  0  0
 81 82  4  0  0  0  0
 78 83  4  0  0  0  0
 82 84  4  0  0  0  0
 83 84  4  0  0  0  0
 83 85  1  0  0  0  0
 84 86  1  0  0  0  0
 81 87  1  0  0  0  0
 80 88  1  0  0  0  0
 82 89  1  0  0  0  0
 89 90  1  0  0  0  0
 89 91  1  0  0  0  0
 89 92  1  0  0  0  0
 90 93  1  0  0  0  0
 90 94  1  0  0  0  0
 94 95  1  0  0  0  0
 94 96  1  0  0  0  0
 94 97  1  0  0  0  0
 93 98  1  0  0  0  0
 95 98  1  0  0  0  0
 95 99  1  0  0  0  0
 95100  1  0  0  0  0
 93101  1  0  0  0  0
 93102  1  0  0  0  0
 98103  1  0  0  0  0
103104  1  0  0  0  0
103105  1  0  0  0  0
103106  1  0  0  0  0
104107  1  0  0  0  0
104108  1  0  0  0  0
104109  1  0  0  0  0
107110  1  0  0  0  0
107111  1  0  0  0  0
107112  1  0  0  0  0
110113  1  0  0  0  0
110114  1  0  0  0  0
110115  1  0  0  0  0
 98116  1  0  0  0  0
M  END
