 xtb: 6.7.1 (edcfbbe)
          10212513463D

116116  0     0  0            999 V2000
    6.2343   10.1951    6.6432 C   0  0  0  0  0  0  0  0  0  0  0  0
    2.9846    6.9764    4.9334 C   0  0  0  0  0  0  0  0  0  0  0  0
    7.0582   10.8581    5.8154 F   0  0  0  0  0  0  0  0  0  0  0  0
    6.0482   10.9538    7.7191 F   0  0  0  0  0  0  0  0  0  0  0  0
    6.9047    9.1013    7.0380 F   0  0  0  0  0  0  0  0  0  0  0  0
    2.3657    8.1139    4.6095 F   0  0  0  0  0  0  0  0  0  0  0  0
    3.6758    6.5712    3.8666 F   0  0  0  0  0  0  0  0  0  0  0  0
    2.0418    6.0705    5.1814 F   0  0  0  0  0  0  0  0  0  0  0  0
    4.6063    9.7536    5.7667 S   0  0  0  0  0  0  0  0  0  0  0  0
    4.1353    7.2190    6.4123 S   0  0  0  0  0  0  0  0  0  0  0  0
    3.9632    8.7418    6.7778 N   0  0  0  0  0  0  0  0  0  0  0  0
    3.9303   11.0003    5.6821 O   0  0  0  0  0  0  0  0  0  0  0  0
    5.0589    9.1446    4.5444 O   0  0  0  0  0  0  0  0  0  0  0  0
    5.4383    6.8660    5.9243 O   0  0  0  0  0  0  0  0  0  0  0  0
    3.6085    6.4130    7.4686 O   0  0  0  0  0  0  0  0  0  0  0  0
    6.5971    1.8612    1.2206 C   0  0  0  0  0  0  0  0  0  0  0  0
    3.7243    2.9886    5.1334 C   0  0  0  0  0  0  0  0  0  0  0  0
    7.7393    2.5578    1.1199 F   0  0  0  0  0  0  0  0  0  0  0  0
    6.8730    0.7026    1.8097 F   0  0  0  0  0  0  0  0  0  0  0  0
    6.1905    1.6000   -0.0212 F   0  0  0  0  0  0  0  0  0  0  0  0
    2.8246    3.1640    4.1833 F   0  0  0  0  0  0  0  0  0  0  0  0
    3.1565    2.2612    6.1049 F   0  0  0  0  0  0  0  0  0  0  0  0
    4.0139    4.1918    5.6491 F   0  0  0  0  0  0  0  0  0  0  0  0
    5.3272    2.9187    2.1338 S   0  0  0  0  0  0  0  0  0  0  0  0
    5.3911    2.2207    4.7111 S   0  0  0  0  0  0  0  0  0  0  0  0
    5.9648    3.1211    3.5647 N   0  0  0  0  0  0  0  0  0  0  0  0
    5.4225    4.1463    1.4000 O   0  0  0  0  0  0  0  0  0  0  0  0
    4.1127    2.1816    2.1174 O   0  0  0  0  0  0  0  0  0  0  0  0
    5.2035    0.8403    4.4133 O   0  0  0  0  0  0  0  0  0  0  0  0
    6.0922    2.4857    5.9504 O   0  0  0  0  0  0  0  0  0  0  0  0
    5.5502    8.4758    9.8198 C   0  0  0  0  0  0  0  0  0  0  0  0
    6.7632    7.9885   10.0574 C   0  0  0  0  0  0  0  0  0  0  0  0
    5.2051    9.3618   10.3249 H   0  0  0  0  0  0  0  0  0  0  0  0
    4.8669    8.0468    9.1062 H   0  0  0  0  0  0  0  0  0  0  0  0
    7.3556    6.8148    9.4284 C   0  0  0  0  0  0  0  0  0  0  0  0
    7.4085    8.4923   10.7682 H   0  0  0  0  0  0  0  0  0  0  0  0
    8.6967    6.5088    9.6693 C   0  0  0  0  0  0  0  0  0  0  0  0
    9.2844    5.3853    9.1165 C   0  0  0  0  0  0  0  0  0  0  0  0
    8.5573    4.5406    8.2861 C   0  0  0  0  0  0  0  0  0  0  0  0
    6.6340    5.9749    8.5762 C   0  0  0  0  0  0  0  0  0  0  0  0
    7.2298    4.8684    7.9968 C   0  0  0  0  0  0  0  0  0  0  0  0
    5.6051    6.1913    8.3526 H   0  0  0  0  0  0  0  0  0  0  0  0
    6.6830    4.2879    7.2647 H   0  0  0  0  0  0  0  0  0  0  0  0
   10.3238    5.1705    9.3262 H   0  0  0  0  0  0  0  0  0  0  0  0
    9.2841    7.1588   10.3023 H   0  0  0  0  0  0  0  0  0  0  0  0
    9.1336    3.2401    7.7906 C   0  0  0  0  0  0  0  0  0  0  0  0
    8.7571    2.0841    8.6112 N   0  0  0  0  0  0  0  0  0  0  0  0
   10.2255    3.2764    7.7891 H   0  0  0  0  0  0  0  0  0  0  0  0
    8.7904    3.0324    6.7784 H   0  0  0  0  0  0  0  0  0  0  0  0
    7.4015    1.6822    8.5551 C   0  0  0  0  0  0  0  0  0  0  0  0
    9.0335    2.2094   10.0252 C   0  0  0  0  0  0  0  0  0  0  0  0
    7.7264    2.7495   10.6576 C   0  0  0  0  0  0  0  0  0  0  0  0
    9.8802    2.8671   10.2039 H   0  0  0  0  0  0  0  0  0  0  0  0
    9.2666    1.2197   10.4277 H   0  0  0  0  0  0  0  0  0  0  0  0
    6.6837    2.5141    9.6273 N   0  0  0  0  0  0  0  0  0  0  0  0
    7.7981    3.8134   10.8790 H   0  0  0  0  0  0  0  0  0  0  0  0
    7.4763    2.2063   11.5681 H   0  0  0  0  0  0  0  0  0  0  0  0
    7.3102    0.6361    8.8661 H   0  0  0  0  0  0  0  0  0  0  0  0
    6.9490    1.8332    7.5719 H   0  0  0  0  0  0  0  0  0  0  0  0
    5.4377    1.9291   10.1596 C   0  0  0  0  0  0  0  0  0  0  0  0
    4.2467    2.1244    9.2297 C   0  0  0  0  0  0  0  0  0  0  0  0
    5.2183    2.4204   11.1118 H   0  0  0  0  0  0  0  0  0  0  0  0
    5.6175    0.8669   10.3488 H   0  0  0  0  0  0  0  0  0  0  0  0
    3.8593    3.6014    9.0759 C   0  0  0  0  0  0  0  0  0  0  0  0
    3.4083    1.5802    9.6680 H   0  0  0  0  0  0  0  0  0  0  0  0
    4.4475    1.6863    8.2528 H   0  0  0  0  0  0  0  0  0  0  0  0
    2.3588    3.7823    8.8769 C   0  0  0  0  0  0  0  0  0  0  0  0
    4.3618    4.0444    8.2185 H   0  0  0  0  0  0  0  0  0  0  0  0
    4.1552    4.1630    9.9667 H   0  0  0  0  0  0  0  0  0  0  0  0
    2.1648    4.8177    8.6143 H   0  0  0  0  0  0  0  0  0  0  0  0
    1.8112    3.5299    9.7830 H   0  0  0  0  0  0  0  0  0  0  0  0
    2.0036    3.1514    8.0690 H   0  0  0  0  0  0  0  0  0  0  0  0
    6.4669    3.4162    9.1558 H   0  0  0  0  0  0  0  0  0  0  0  0
   10.4725   -0.9785    1.6138 C   0  0  0  0  0  0  0  0  0  0  0  0
    9.7428   -0.3589    2.5340 C   0  0  0  0  0  0  0  0  0  0  0  0
   10.3640   -2.0344    1.4348 H   0  0  0  0  0  0  0  0  0  0  0  0
   11.1961   -0.4712    0.9987 H   0  0  0  0  0  0  0  0  0  0  0  0
    9.7726    1.0614    2.8600 C   0  0  0  0  0  0  0  0  0  0  0  0
    9.0216   -0.9288    3.1051 H   0  0  0  0  0  0  0  0  0  0  0  0
    8.8830    1.5529    3.8174 C   0  0  0  0  0  0  0  0  0  0  0  0
    8.8424    2.8963    4.1321 C   0  0  0  0  0  0  0  0  0  0  0  0
    9.6974    3.7910    3.5056 C   0  0  0  0  0  0  0  0  0  0  0  0
   10.6288    1.9701    2.2362 C   0  0  0  0  0  0  0  0  0  0  0  0
   10.5905    3.3120    2.5548 C   0  0  0  0  0  0  0  0  0  0  0  0
   11.3248    1.6279    1.4866 H   0  0  0  0  0  0  0  0  0  0  0  0
   11.2618    3.9971    2.0545 H   0  0  0  0  0  0  0  0  0  0  0  0
    8.1115    3.2642    4.8317 H   0  0  0  0  0  0  0  0  0  0  0  0
    8.1886    0.8815    4.3021 H   0  0  0  0  0  0  0  0  0  0  0  0
    9.7011    5.2505    3.8868 C   0  0  0  0  0  0  0  0  0  0  0  0
    8.4405    5.6647    4.4777 N   0  0  0  0  0  0  0  0  0  0  0  0
   10.0008    5.8526    3.0097 H   0  0  0  0  0  0  0  0  0  0  0  0
   10.4730    5.3959    4.6511 H   0  0  0  0  0  0  0  0  0  0  0  0
    7.3473    5.8045    3.5815 C   0  0  0  0  0  0  0  0  0  0  0  0
    8.4547    6.9368    5.1752 C   0  0  0  0  0  0  0  0  0  0  0  0
    7.9835    7.9873    4.1369 C   0  0  0  0  0  0  0  0  0  0  0  0
    9.4385    7.1579    5.5864 H   0  0  0  0  0  0  0  0  0  0  0  0
    7.7247    6.8875    5.9843 H   0  0  0  0  0  0  0  0  0  0  0  0
    7.5551    7.1854    2.9697 N   0  0  0  0  0  0  0  0  0  0  0  0
    8.7627    8.6965    3.8584 H   0  0  0  0  0  0  0  0  0  0  0  0
    7.1066    8.5189    4.5043 H   0  0  0  0  0  0  0  0  0  0  0  0
    6.4148    5.8504    4.1500 H   0  0  0  0  0  0  0  0  0  0  0  0
    7.2866    5.0223    2.8276 H   0  0  0  0  0  0  0  0  0  0  0  0
    6.4304    7.7774    2.2231 C   0  0  0  0  0  0  0  0  0  0  0  0
    6.2071    7.0952    0.8792 C   0  0  0  0  0  0  0  0  0  0  0  0
    6.6569    8.8369    2.0800 H   0  0  0  0  0  0  0  0  0  0  0  0
    5.5405    7.7165    2.8471 H   0  0  0  0  0  0  0  0  0  0  0  0
    7.4435    7.0605   -0.0249 C   0  0  0  0  0  0  0  0  0  0  0  0
    5.4153    7.6466    0.3721 H   0  0  0  0  0  0  0  0  0  0  0  0
    5.8503    6.0772    1.0328 H   0  0  0  0  0  0  0  0  0  0  0  0
    8.0422    8.4375   -0.3031 C   0  0  0  0  0  0  0  0  0  0  0  0
    7.1398    6.6148   -0.9724 H   0  0  0  0  0  0  0  0  0  0  0  0
    8.2063    6.3940    0.3897 H   0  0  0  0  0  0  0  0  0  0  0  0
    8.8298    8.3614   -1.0493 H   0  0  0  0  0  0  0  0  0  0  0  0
    8.4722    8.8902    0.5886 H   0  0  0  0  0  0  0  0  0  0  0  0
    7.2776    9.1079   -0.6870 H   0  0  0  0  0  0  0  0  0  0  0  0
    8.3301    7.0875    2.3074 H   0  0  0  0  0  0  0  0  0  0  0  0
  1  3  1  0  0  0  0
  1  4  1  0  0  0  0
  1  5  1  0  0  0  0
  2  6  1  0  0  0  0
  2  7  1  0  0  0  0
  2  8  1  0  0  0  0
  1  9  1  0  0  0  0
  2 10  1  0  0  0  0
  9 11  1  0  0  0  0
 10 11  1  0  0  0  0
  9 12  2  0  0  0  0
  9 13  2  0  0  0  0
 10 14  2  0  0  0  0
 10 15  2  0  0  0  0
 16 18  1  0  0  0  0
 16 19  1  0  0  0  0
 16 20  1  0  0  0  0
 17 21  1  0  0  0  0
 17 22  1  0  0  0  0
 17 23  1  0  0  0  0
 16 24  1  0  0  0  0
 17 25  1  0  0  0  0
 24 26  1  0  0  0  0
 25 26  1  0  0  0  0
 24 27  2  0  0  0  0
 24 28  2  0  0  0  0
 25 29  2  0  0  0  0
 25 30  2  0  0  0  0
 31 32  2  0  0  0  0
 31 33  1  0  0  0  0
 31 34  1  0  0  0  0
 32 35  1  0  0  0  0
 32 36  1  0  0  0  0
 35 37  4  0  0  0  0
 37 38  4  0  0  0  0
 38 39  4  0  0  0  0
 35 40  4  0  0  0  0
 39 41  4  0  0  0  0
 40 41  4  0  0  0  0
 40 42  1  0  0  0  0
 41 43  1  0  0  0  0
 38 44  1  0  0  0  0
 37 45  1  0  0  0  0
 39 46  1  0  0  0  0
 46 47  1  0  0  0  0
 46 48  1  0  0  0  0
 46 49  1  0  0  0  0
 47 50  1  0  0  0  0
 47 51  1  0  0  0  0
 51 52  1  0  0  0  0
 51 53  1  0  0  0  0
 51 54  1  0  0  0  0
 50 55  1  0  0  0  0
 52 55  1  0  0  0  0
 52 56  1  0  0  0  0
 52 57  1  0  0  0  0
 50 58  1  0  0  0  0
 50 59  1  0  0  0  0
 55 60  1  0  0  0  0
 60 61  1  0  0  0  0
 60 62  1  0  0  0  0
 60 63  1  0  0  0  0
 61 64  1  0  0  0  0
 61 65  1  0  0  0  0
 61 66  1  0  0  0  0
 64 67  1  0  0  0  0
 64 68  1  0  0  0  0
 64 69  1  0  0  0  0
 67 70  1  0  0  0  0
 67 71  1  0  0  0  0
 67 72  1  0  0  0  0
 55 73  1  0  0  0  0
 74 75  2  0  0  0  0
 74 76  1  0  0  0  0
 74 77  1  0  0  0  0
 75 78  1  0  0  0  0
 75 79  1  0  0  0  0
 78 80  4  0  0  0  0
 80 81  4  0  0  0  0
 81 82  4  0  0  0  0
 78 83  4  0  0  0  0
 82 84  4  0  0  0  0
 83 84  4  0  0  0  0
 83 85  1  0  0  0  0
 84 86  1  0  0  0  0
 81 87  1  0  0  0  0
 80 88  1  0  0  0  0
 82 89  1  0  0  0  0
 89 90  1  0  0  0  0
 89 91  1  0  0  0  0
 89 92  1  0  0  0  0
 90 93  1  0  0  0  0
 90 94  1  0  0  0  0
 94 95  1  0  0  0  0
 94 96  1  0  0  0  0
 94 97  1  0  0  0  0
 93 98  1  0  0  0  0
 95 98  1  0  0  0  0
 95 99  1  0  0  0  0
 95100  1  0  0  0  0
 93101  1  0  0  0  0
 93102  1  0  0  0  0
 98103  1  0  0  0  0
103104  1  0  0  0  0
103105  1  0  0  0  0
103106  1  0  0  0  0
104107  1  0  0  0  0
104108  1  0  0  0  0
104109  1  0  0  0  0
107110  1  0  0  0  0
107111  1  0  0  0  0
107112  1  0  0  0  0
110113  1  0  0  0  0
110114  1  0  0  0  0
110115  1  0  0  0  0
 98116  1  0  0  0  0
M  END
