 xtb: 6.7.1 (edcfbbe)
          10212513393D

116116  0     0  0            999 V2000
    2.2741    6.6563    4.4940 C   0  0  0  0  0  0  0  0  0  0  0  0
    5.7194    9.7619    2.3194 C   0  0  0  0  0  0  0  0  0  0  0  0
    1.8927    5.3752    4.5306 F   0  0  0  0  0  0  0  0  0  0  0  0
    1.8426    7.2266    5.6219 F   0  0  0  0  0  0  0  0  0  0  0  0
    1.6601    7.2331    3.4713 F   0  0  0  0  0  0  0  0  0  0  0  0
    4.8163   10.7343    2.3758 F   0  0  0  0  0  0  0  0  0  0  0  0
    6.8958   10.3121    2.0201 F   0  0  0  0  0  0  0  0  0  0  0  0
    5.3821    8.9436    1.3234 F   0  0  0  0  0  0  0  0  0  0  0  0
    4.1448    6.8118    4.3905 S   0  0  0  0  0  0  0  0  0  0  0  0
    5.7332    8.8311    3.9429 S   0  0  0  0  0  0  0  0  0  0  0  0
    4.2376    8.3020    3.9372 N   0  0  0  0  0  0  0  0  0  0  0  0
    4.5900    6.5674    5.7355 O   0  0  0  0  0  0  0  0  0  0  0  0
    4.5480    5.8022    3.4409 O   0  0  0  0  0  0  0  0  0  0  0  0
    6.0035    9.8231    4.9324 O   0  0  0  0  0  0  0  0  0  0  0  0
    6.6680    7.7504    3.8411 O   0  0  0  0  0  0  0  0  0  0  0  0
    4.5895    2.0356   11.4422 C   0  0  0  0  0  0  0  0  0  0  0  0
    6.5991    0.2755    8.4489 C   0  0  0  0  0  0  0  0  0  0  0  0
    5.0035    3.2908   11.6947 F   0  0  0  0  0  0  0  0  0  0  0  0
    3.5598    1.8003   12.2537 F   0  0  0  0  0  0  0  0  0  0  0  0
    5.5620    1.1968   11.7608 F   0  0  0  0  0  0  0  0  0  0  0  0
    5.7964   -0.0758    7.4450 F   0  0  0  0  0  0  0  0  0  0  0  0
    7.8497   -0.0014    8.0553 F   0  0  0  0  0  0  0  0  0  0  0  0
    6.3482   -0.4622    9.5135 F   0  0  0  0  0  0  0  0  0  0  0  0
    4.0026    1.9221    9.6507 S   0  0  0  0  0  0  0  0  0  0  0  0
    6.5588    2.1370    8.7203 S   0  0  0  0  0  0  0  0  0  0  0  0
    5.0753    2.6682    8.7718 N   0  0  0  0  0  0  0  0  0  0  0  0
    3.9178    0.5315    9.3597 O   0  0  0  0  0  0  0  0  0  0  0  0
    2.8085    2.7127    9.6711 O   0  0  0  0  0  0  0  0  0  0  0  0
    7.1743    2.6306    7.5170 O   0  0  0  0  0  0  0  0  0  0  0  0
    7.2442    2.3831    9.9491 O   0  0  0  0  0  0  0  0  0  0  0  0
   12.6674    9.9850    1.3630 C   0  0  0  0  0  0  0  0  0  0  0  0
   11.4588    9.7772    0.8542 C   0  0  0  0  0  0  0  0  0  0  0  0
   13.2458   10.8522    1.0935 H   0  0  0  0  0  0  0  0  0  0  0  0
   13.1277    9.3135    2.0671 H   0  0  0  0  0  0  0  0  0  0  0  0
   10.5711    8.6575    1.1420 C   0  0  0  0  0  0  0  0  0  0  0  0
   11.0511   10.5051    0.1629 H   0  0  0  0  0  0  0  0  0  0  0  0
    9.2647    8.6876    0.6503 C   0  0  0  0  0  0  0  0  0  0  0  0
    8.3785    7.6669    0.9228 C   0  0  0  0  0  0  0  0  0  0  0  0
    8.7638    6.5760    1.6928 C   0  0  0  0  0  0  0  0  0  0  0  0
   10.9600    7.5430    1.8844 C   0  0  0  0  0  0  0  0  0  0  0  0
   10.0727    6.5180    2.1508 C   0  0  0  0  0  0  0  0  0  0  0  0
   11.9711    7.4708    2.2543 H   0  0  0  0  0  0  0  0  0  0  0  0
   10.3994    5.6595    2.7159 H   0  0  0  0  0  0  0  0  0  0  0  0
    7.3728    7.7090    0.5326 H   0  0  0  0  0  0  0  0  0  0  0  0
    8.9408    9.5308    0.0576 H   0  0  0  0  0  0  0  0  0  0  0  0
    7.7508    5.4981    1.9745 C   0  0  0  0  0  0  0  0  0  0  0  0
    8.1980    4.5639    3.0024 N   0  0  0  0  0  0  0  0  0  0  0  0
    7.5988    4.9209    1.0558 H   0  0  0  0  0  0  0  0  0  0  0  0
    6.8019    5.9827    2.2427 H   0  0  0  0  0  0  0  0  0  0  0  0
    7.3816    3.4145    3.1444 C   0  0  0  0  0  0  0  0  0  0  0  0
    8.2749    5.1281    4.3472 C   0  0  0  0  0  0  0  0  0  0  0  0
    7.0499    4.5918    5.1275 C   0  0  0  0  0  0  0  0  0  0  0  0
    8.2618    6.2152    4.2871 H   0  0  0  0  0  0  0  0  0  0  0  0
    9.2011    4.7970    4.8231 H   0  0  0  0  0  0  0  0  0  0  0  0
    6.3033    3.7856    4.1357 N   0  0  0  0  0  0  0  0  0  0  0  0
    6.4215    5.4023    5.4890 H   0  0  0  0  0  0  0  0  0  0  0  0
    7.3438    3.9458    5.9566 H   0  0  0  0  0  0  0  0  0  0  0  0
    7.9545    2.6031    3.6092 H   0  0  0  0  0  0  0  0  0  0  0  0
    6.9516    3.0783    2.2009 H   0  0  0  0  0  0  0  0  0  0  0  0
    5.5767    2.6196    4.6680 C   0  0  0  0  0  0  0  0  0  0  0  0
    4.3376    3.0133    5.4657 C   0  0  0  0  0  0  0  0  0  0  0  0
    6.2594    2.0493    5.3023 H   0  0  0  0  0  0  0  0  0  0  0  0
    5.2784    2.0042    3.8142 H   0  0  0  0  0  0  0  0  0  0  0  0
    3.3771    1.8307    5.6033 C   0  0  0  0  0  0  0  0  0  0  0  0
    3.8264    3.8315    4.9555 H   0  0  0  0  0  0  0  0  0  0  0  0
    4.6287    3.3492    6.4604 H   0  0  0  0  0  0  0  0  0  0  0  0
    2.1003    2.2320    6.3309 C   0  0  0  0  0  0  0  0  0  0  0  0
    3.8676    1.0285    6.1553 H   0  0  0  0  0  0  0  0  0  0  0  0
    3.1218    1.4560    4.6085 H   0  0  0  0  0  0  0  0  0  0  0  0
    1.6104    3.0536    5.8138 H   0  0  0  0  0  0  0  0  0  0  0  0
    2.3241    2.5361    7.3495 H   0  0  0  0  0  0  0  0  0  0  0  0
    1.4153    1.3897    6.3717 H   0  0  0  0  0  0  0  0  0  0  0  0
    5.6221    4.4388    3.6921 H   0  0  0  0  0  0  0  0  0  0  0  0
    7.0643   11.7630    7.3401 C   0  0  0  0  0  0  0  0  0  0  0  0
    6.4333   11.6664    8.5052 C   0  0  0  0  0  0  0  0  0  0  0  0
    7.8654   12.4704    7.2054 H   0  0  0  0  0  0  0  0  0  0  0  0
    6.8133   11.1598    6.4846 H   0  0  0  0  0  0  0  0  0  0  0  0
    5.3401   10.7533    8.8157 C   0  0  0  0  0  0  0  0  0  0  0  0
    6.7322   12.3044    9.3292 H   0  0  0  0  0  0  0  0  0  0  0  0
    4.7863    9.8854    7.8708 C   0  0  0  0  0  0  0  0  0  0  0  0
    3.7509    9.0350    8.2120 C   0  0  0  0  0  0  0  0  0  0  0  0
    3.2240    9.0291    9.5045 C   0  0  0  0  0  0  0  0  0  0  0  0
    4.8113   10.7398   10.1082 C   0  0  0  0  0  0  0  0  0  0  0  0
    3.7736    9.8929   10.4463 C   0  0  0  0  0  0  0  0  0  0  0  0
    5.2153   11.4095   10.8541 H   0  0  0  0  0  0  0  0  0  0  0  0
    3.3692    9.9159   11.4490 H   0  0  0  0  0  0  0  0  0  0  0  0
    3.3294    8.3930    7.4511 H   0  0  0  0  0  0  0  0  0  0  0  0
    5.1553    9.8793    6.8594 H   0  0  0  0  0  0  0  0  0  0  0  0
    2.1076    8.0910    9.8916 C   0  0  0  0  0  0  0  0  0  0  0  0
    2.5083    6.7007   10.1165 N   0  0  0  0  0  0  0  0  0  0  0  0
    1.3330    8.0894    9.1244 H   0  0  0  0  0  0  0  0  0  0  0  0
    1.6534    8.4419   10.8243 H   0  0  0  0  0  0  0  0  0  0  0  0
    3.7813    6.5078   10.7001 C   0  0  0  0  0  0  0  0  0  0  0  0
    2.4875    5.7831    8.9856 C   0  0  0  0  0  0  0  0  0  0  0  0
    3.9631    5.5673    8.5673 C   0  0  0  0  0  0  0  0  0  0  0  0
    1.8797    6.1805    8.1754 H   0  0  0  0  0  0  0  0  0  0  0  0
    2.0675    4.8275    9.3121 H   0  0  0  0  0  0  0  0  0  0  0  0
    4.7401    6.3900    9.5250 N   0  0  0  0  0  0  0  0  0  0  0  0
    4.1635    5.8859    7.5467 H   0  0  0  0  0  0  0  0  0  0  0  0
    4.2401    4.5186    8.6870 H   0  0  0  0  0  0  0  0  0  0  0  0
    3.8211    5.5469   11.2226 H   0  0  0  0  0  0  0  0  0  0  0  0
    4.0737    7.3211   11.3654 H   0  0  0  0  0  0  0  0  0  0  0  0
    6.0793    5.8914    9.8767 C   0  0  0  0  0  0  0  0  0  0  0  0
    7.0091    5.7967    8.6717 C   0  0  0  0  0  0  0  0  0  0  0  0
    5.9781    4.8971   10.3124 H   0  0  0  0  0  0  0  0  0  0  0  0
    6.4960    6.5656   10.6287 H   0  0  0  0  0  0  0  0  0  0  0  0
    7.2120    7.1083    7.9089 C   0  0  0  0  0  0  0  0  0  0  0  0
    6.6320    5.0291    7.9985 H   0  0  0  0  0  0  0  0  0  0  0  0
    7.9706    5.4417    9.0454 H   0  0  0  0  0  0  0  0  0  0  0  0
    7.7703    8.2294    8.7794 C   0  0  0  0  0  0  0  0  0  0  0  0
    6.2848    7.4284    7.4290 H   0  0  0  0  0  0  0  0  0  0  0  0
    7.9193    6.9141    7.1019 H   0  0  0  0  0  0  0  0  0  0  0  0
    7.0632    8.5506    9.5414 H   0  0  0  0  0  0  0  0  0  0  0  0
    7.9996    9.0942    8.1634 H   0  0  0  0  0  0  0  0  0  0  0  0
    8.6841    7.9046    9.2719 H   0  0  0  0  0  0  0  0  0  0  0  0
    4.8294    7.3318    9.1089 H   0  0  0  0  0  0  0  0  0  0  0  0
  1  3  1  0  0  0  0
  1  4  1  0  0  0  0
  1  5  1  0  0  0  0
  2  6  1  0  0  0  0
  2  7  1  0  0  0  0
  2  8  1  0  0  0  0
  1  9  1  0  0  0  0
  2 10  1  0  0  0  0
  9 11  1  0  0  0  0
 10 11  1  0  0  0  0
  9 12  2  0  0  0  0
  9 13  2  0  0  0  0
 10 14  2  0  0  0  0
 10 15  2  0  0  0  0
 16 18  1  0  0  0  0
 16 19  1  0  0  0  0
 16 20  1  0  0  0  0
 17 21  1  0  0  0  0
 17 22  1  0  0  0  0
 17 23  1  0  0  0  0
 16 24  1  0  0  0  0
 17 25  1  0  0  0  0
 24 26  1  0  0  0  0
 25 26  1  0  0  0  0
 24 27  2  0  0  0  0
 24 28  2  0  0  0  0
 25 29  2  0  0  0  0
 25 30  2  0  0  0  0
 31 32  2  0  0  0  0
 31 33  1  0  0  0  0
 31 34  1  0  0  0  0
 32 35  1  0  0  0  0
 32 36  1  0  0  0  0
 35 37  4  0  0  0  0
 37 38  4  0  0  0  0
 38 39  4  0  0  0  0
 35 40  4  0  0  0  0
 39 41  4  0  0  0  0
 40 41  4  0  0  0  0
 40 42  1  0  0  0  0
 41 43  1  0  0  0  0
 38 44  1  0  0  0  0
 37 45  1  0  0  0  0
 39 46  1  0  0  0  0
 46 47  1  0  0  0  0
 46 48  1  0  0  0  0
 46 49  1  0  0  0  0
 47 50  1  0  0  0  0
 47 51  1  0  0  0  0
 51 52  1  0  0  0  0
 51 53  1  0  0  0  0
 51 54  1  0  0  0  0
 50 55  1  0  0  0  0
 52 55  1  0  0  0  0
 52 56  1  0  0  0  0
 52 57  1  0  0  0  0
 50 58  1  0  0  0  0
 50 59  1  0  0  0  0
 55 60  1  0  0  0  0
 60 61  1  0  0  0  0
 60 62  1  0  0  0  0
 60 63  1  0  0  0  0
 61 64  1  0  0  0  0
 61 65  1  0  0  0  0
 61 66  1  0  0  0  0
 64 67  1  0  0  0  0
 64 68  1  0  0  0  0
 64 69  1  0  0  0  0
 67 70  1  0  0  0  0
 67 71  1  0  0  0  0
 67 72  1  0  0  0  0
 55 73  1  0  0  0  0
 74 75  2  0  0  0  0
 74 76  1  0  0  0  0
 74 77  1  0  0  0  0
 75 78  1  0  0  0  0
 75 79  1  0  0  0  0
 78 80  4  0  0  0  0
 80 81  4  0  0  0  0
 81 82  4  0  0  0  0
 78 83  4  0  0  0  0
 82 84  4  0  0  0  0
 83 84  4  0  0  0  0
 83 85  1  0  0  0  0
 84 86  1  0  0  0  0
 81 87  1  0  0  0  0
 80 88  1  0  0  0  0
 82 89  1  0  0  0  0
 89 90  1  0  0  0  0
 89 91  1  0  0  0  0
 89 92  1  0  0  0  0
 90 93  1  0  0  0  0
 90 94  1  0  0  0  0
 94 95  1  0  0  0  0
 94 96  1  0  0  0  0
 94 97  1  0  0  0  0
 93 98  1  0  0  0  0
 95 98  1  0  0  0  0
 95 99  1  0  0  0  0
 95100  1  0  0  0  0
 93101  1  0  0  0  0
 93102  1  0  0  0  0
 98103  1  0  0  0  0
103104  1  0  0  0  0
103105  1  0  0  0  0
103106  1  0  0  0  0
104107  1  0  0  0  0
104108  1  0  0  0  0
104109  1  0  0  0  0
107110  1  0  0  0  0
107111  1  0  0  0  0
107112  1  0  0  0  0
110113  1  0  0  0  0
110114  1  0  0  0  0
110115  1  0  0  0  0
 98116  1  0  0  0  0
M  END
