 xtb: 6.7.1 (edcfbbe)
          10212513303D

116116  0     0  0            999 V2000
    3.7468    3.8278   -0.6304 C   0  0  0  0  0  0  0  0  0  0  0  0
    2.7991    0.9704    2.5118 C   0  0  0  0  0  0  0  0  0  0  0  0
    2.7424    3.7659    0.2458 F   0  0  0  0  0  0  0  0  0  0  0  0
    3.9564    5.1238   -0.8860 F   0  0  0  0  0  0  0  0  0  0  0  0
    3.3766    3.2532   -1.7601 F   0  0  0  0  0  0  0  0  0  0  0  0
    1.9001    1.9395    2.3718 F   0  0  0  0  0  0  0  0  0  0  0  0
    2.1518   -0.1869    2.6051 F   0  0  0  0  0  0  0  0  0  0  0  0
    3.4218    1.1783    3.6846 F   0  0  0  0  0  0  0  0  0  0  0  0
    5.3023    3.0794    0.1341 S   0  0  0  0  0  0  0  0  0  0  0  0
    4.0764    0.9751    1.1219 S   0  0  0  0  0  0  0  0  0  0  0  0
    4.7686    2.3772    1.4608 N   0  0  0  0  0  0  0  0  0  0  0  0
    5.8688    2.1719   -0.8024 O   0  0  0  0  0  0  0  0  0  0  0  0
    6.1001    4.2069    0.5297 O   0  0  0  0  0  0  0  0  0  0  0  0
    3.3402    1.0139   -0.0913 O   0  0  0  0  0  0  0  0  0  0  0  0
    4.9200   -0.1304    1.4348 O   0  0  0  0  0  0  0  0  0  0  0  0
    9.1170    3.3328    7.2178 C   0  0  0  0  0  0  0  0  0  0  0  0
    9.1254    7.3090    5.5862 C   0  0  0  0  0  0  0  0  0  0  0  0
    8.0327    2.6092    7.5007 F   0  0  0  0  0  0  0  0  0  0  0  0
    9.1852    3.4246    5.8838 F   0  0  0  0  0  0  0  0  0  0  0  0
   10.1823    2.6541    7.6303 F   0  0  0  0  0  0  0  0  0  0  0  0
    9.3480    6.1514    4.9735 F   0  0  0  0  0  0  0  0  0  0  0  0
    8.6219    8.1553    4.6757 F   0  0  0  0  0  0  0  0  0  0  0  0
   10.2852    7.8328    5.9714 F   0  0  0  0  0  0  0  0  0  0  0  0
    9.0225    5.0388    7.9998 S   0  0  0  0  0  0  0  0  0  0  0  0
    7.8595    7.1209    6.9910 S   0  0  0  0  0  0  0  0  0  0  0  0
    7.7276    5.5899    7.2455 N   0  0  0  0  0  0  0  0  0  0  0  0
    8.8336    4.7865    9.3869 O   0  0  0  0  0  0  0  0  0  0  0  0
   10.1967    5.7259    7.5718 O   0  0  0  0  0  0  0  0  0  0  0  0
    6.6747    7.7150    6.4515 O   0  0  0  0  0  0  0  0  0  0  0  0
    8.4320    7.8774    8.0861 O   0  0  0  0  0  0  0  0  0  0  0  0
   -1.0673    5.9975    7.3294 C   0  0  0  0  0  0  0  0  0  0  0  0
    0.2040    6.3806    7.3226 C   0  0  0  0  0  0  0  0  0  0  0  0
   -1.7460    6.3222    8.0996 H   0  0  0  0  0  0  0  0  0  0  0  0
   -1.4864    5.3513    6.5779 H   0  0  0  0  0  0  0  0  0  0  0  0
    1.2236    6.0150    6.3469 C   0  0  0  0  0  0  0  0  0  0  0  0
    0.5571    7.0305    8.1151 H   0  0  0  0  0  0  0  0  0  0  0  0
    0.9588    5.2174    5.2329 C   0  0  0  0  0  0  0  0  0  0  0  0
    1.9636    4.8814    4.3480 C   0  0  0  0  0  0  0  0  0  0  0  0
    3.2622    5.3374    4.5419 C   0  0  0  0  0  0  0  0  0  0  0  0
    2.5300    6.4760    6.5246 C   0  0  0  0  0  0  0  0  0  0  0  0
    3.5368    6.1494    5.6374 C   0  0  0  0  0  0  0  0  0  0  0  0
    2.7598    7.1003    7.3768 H   0  0  0  0  0  0  0  0  0  0  0  0
    4.5415    6.5140    5.7911 H   0  0  0  0  0  0  0  0  0  0  0  0
    1.7400    4.2592    3.4939 H   0  0  0  0  0  0  0  0  0  0  0  0
   -0.0401    4.8509    5.0576 H   0  0  0  0  0  0  0  0  0  0  0  0
    4.3492    4.9567    3.5741 C   0  0  0  0  0  0  0  0  0  0  0  0
    5.6226    4.7994    4.2674 N   0  0  0  0  0  0  0  0  0  0  0  0
    4.4821    5.7652    2.8481 H   0  0  0  0  0  0  0  0  0  0  0  0
    4.0534    4.0563    3.0157 H   0  0  0  0  0  0  0  0  0  0  0  0
    6.7284    4.5144    3.4309 C   0  0  0  0  0  0  0  0  0  0  0  0
    5.6536    3.7472    5.2703 C   0  0  0  0  0  0  0  0  0  0  0  0
    6.2946    2.5124    4.5837 C   0  0  0  0  0  0  0  0  0  0  0  0
    4.6497    3.5394    5.6345 H   0  0  0  0  0  0  0  0  0  0  0  0
    6.2670    4.0933    6.1072 H   0  0  0  0  0  0  0  0  0  0  0  0
    6.7134    3.0086    3.2564 N   0  0  0  0  0  0  0  0  0  0  0  0
    5.5912    1.6912    4.4735 H   0  0  0  0  0  0  0  0  0  0  0  0
    7.1675    2.1670    5.1331 H   0  0  0  0  0  0  0  0  0  0  0  0
    7.6625    4.7598    3.9458 H   0  0  0  0  0  0  0  0  0  0  0  0
    6.6721    4.9950    2.4543 H   0  0  0  0  0  0  0  0  0  0  0  0
    7.9660    2.4584    2.7202 C   0  0  0  0  0  0  0  0  0  0  0  0
    7.8983    0.9422    2.5490 C   0  0  0  0  0  0  0  0  0  0  0  0
    8.7826    2.7391    3.3925 H   0  0  0  0  0  0  0  0  0  0  0  0
    8.1210    2.9320    1.7492 H   0  0  0  0  0  0  0  0  0  0  0  0
    9.0183    0.4213    1.6443 C   0  0  0  0  0  0  0  0  0  0  0  0
    6.9403    0.6619    2.1064 H   0  0  0  0  0  0  0  0  0  0  0  0
    7.9751    0.4577    3.5245 H   0  0  0  0  0  0  0  0  0  0  0  0
    8.8228    0.8088    0.1828 C   0  0  0  0  0  0  0  0  0  0  0  0
    9.0291   -0.6671    1.7184 H   0  0  0  0  0  0  0  0  0  0  0  0
    9.9831    0.7892    2.0033 H   0  0  0  0  0  0  0  0  0  0  0  0
    9.5437    0.2864   -0.4411 H   0  0  0  0  0  0  0  0  0  0  0  0
    8.9555    1.8763    0.0263 H   0  0  0  0  0  0  0  0  0  0  0  0
    7.8207    0.5485   -0.1494 H   0  0  0  0  0  0  0  0  0  0  0  0
    5.9517    2.7828    2.5626 H   0  0  0  0  0  0  0  0  0  0  0  0
    9.2110    5.4625   12.5569 C   0  0  0  0  0  0  0  0  0  0  0  0
    9.6953    6.6588   12.8678 C   0  0  0  0  0  0  0  0  0  0  0  0
    8.9218    4.7652   13.3255 H   0  0  0  0  0  0  0  0  0  0  0  0
    9.0723    5.1393   11.5397 H   0  0  0  0  0  0  0  0  0  0  0  0
   10.0998    7.6827   11.9108 C   0  0  0  0  0  0  0  0  0  0  0  0
    9.7828    6.9494   13.9089 H   0  0  0  0  0  0  0  0  0  0  0  0
   10.3931    7.3939   10.5778 C   0  0  0  0  0  0  0  0  0  0  0  0
   10.7232    8.3977    9.6870 C   0  0  0  0  0  0  0  0  0  0  0  0
   10.7706    9.7239   10.1006 C   0  0  0  0  0  0  0  0  0  0  0  0
   10.2135    9.0077   12.3366 C   0  0  0  0  0  0  0  0  0  0  0  0
   10.5385   10.0102   11.4455 C   0  0  0  0  0  0  0  0  0  0  0  0
   10.0340    9.2518   13.3745 H   0  0  0  0  0  0  0  0  0  0  0  0
   10.6323   11.0301   11.7975 H   0  0  0  0  0  0  0  0  0  0  0  0
   10.9430    8.1302    8.6653 H   0  0  0  0  0  0  0  0  0  0  0  0
   10.3592    6.3782   10.2238 H   0  0  0  0  0  0  0  0  0  0  0  0
   11.0057   10.8522    9.1315 C   0  0  0  0  0  0  0  0  0  0  0  0
    9.7831   11.3894    8.5142 N   0  0  0  0  0  0  0  0  0  0  0  0
   11.6662   10.5372    8.3245 H   0  0  0  0  0  0  0  0  0  0  0  0
   11.4814   11.6898    9.6538 H   0  0  0  0  0  0  0  0  0  0  0  0
    8.5867   11.3571    9.2974 C   0  0  0  0  0  0  0  0  0  0  0  0
    9.4370   10.8905    7.1805 C   0  0  0  0  0  0  0  0  0  0  0  0
    7.9144   10.7295    7.2007 C   0  0  0  0  0  0  0  0  0  0  0  0
    9.9209    9.9302    6.9894 H   0  0  0  0  0  0  0  0  0  0  0  0
    9.7592   11.6063    6.4196 H   0  0  0  0  0  0  0  0  0  0  0  0
    7.6679   10.3963    8.6183 N   0  0  0  0  0  0  0  0  0  0  0  0
    7.5487    9.9388    6.5471 H   0  0  0  0  0  0  0  0  0  0  0  0
    7.4154   11.6725    6.9660 H   0  0  0  0  0  0  0  0  0  0  0  0
    8.0903   12.3394    9.2683 H   0  0  0  0  0  0  0  0  0  0  0  0
    8.7732   11.0674   10.3341 H   0  0  0  0  0  0  0  0  0  0  0  0
    6.2650   10.4354    9.0900 C   0  0  0  0  0  0  0  0  0  0  0  0
    5.7069    9.0342    9.3168 C   0  0  0  0  0  0  0  0  0  0  0  0
    5.6637   10.9680    8.3505 H   0  0  0  0  0  0  0  0  0  0  0  0
    6.2385   10.9965   10.0282 H   0  0  0  0  0  0  0  0  0  0  0  0
    6.3856    8.3127   10.4837 C   0  0  0  0  0  0  0  0  0  0  0  0
    5.8224    8.4485    8.4043 H   0  0  0  0  0  0  0  0  0  0  0  0
    4.6386    9.1235    9.5214 H   0  0  0  0  0  0  0  0  0  0  0  0
    5.9449    6.8561   10.5574 C   0  0  0  0  0  0  0  0  0  0  0  0
    6.1426    8.8224   11.4200 H   0  0  0  0  0  0  0  0  0  0  0  0
    7.4706    8.3241   10.3652 H   0  0  0  0  0  0  0  0  0  0  0  0
    6.2405    6.3337    9.6498 H   0  0  0  0  0  0  0  0  0  0  0  0
    4.8664    6.7817   10.6719 H   0  0  0  0  0  0  0  0  0  0  0  0
    6.4225    6.3639   11.3997 H   0  0  0  0  0  0  0  0  0  0  0  0
    8.0254    9.4096    8.7030 H   0  0  0  0  0  0  0  0  0  0  0  0
  1  3  1  0  0  0  0
  1  4  1  0  0  0  0
  1  5  1  0  0  0  0
  2  6  1  0  0  0  0
  2  7  1  0  0  0  0
  2  8  1  0  0  0  0
  1  9  1  0  0  0  0
  2 10  1  0  0  0  0
  9 11  1  0  0  0  0
 10 11  1  0  0  0  0
  9 12  2  0  0  0  0
  9 13  2  0  0  0  0
 10 14  2  0  0  0  0
 10 15  2  0  0  0  0
 16 18  1  0  0  0  0
 16 19  1  0  0  0  0
 16 20  1  0  0  0  0
 17 21  1  0  0  0  0
 17 22  1  0  0  0  0
 17 23  1  0  0  0  0
 16 24  1  0  0  0  0
 17 25  1  0  0  0  0
 24 26  1  0  0  0  0
 25 26  1  0  0  0  0
 24 27  2  0  0  0  0
 24 28  2  0  0  0  0
 25 29  2  0  0  0  0
 25 30  2  0  0  0  0
 31 32  2  0  0  0  0
 31 33  1  0  0  0  0
 31 34  1  0  0  0  0
 32 35  1  0  0  0  0
 32 36  1  0  0  0  0
 35 37  4  0  0  0  0
 37 38  4  0  0  0  0
 38 39  4  0  0  0  0
 35 40  4  0  0  0  0
 39 41  4  0  0  0  0
 40 41  4  0  0  0  0
 40 42  1  0  0  0  0
 41 43  1  0  0  0  0
 38 44  1  0  0  0  0
 37 45  1  0  0  0  0
 39 46  1  0  0  0  0
 46 47  1  0  0  0  0
 46 48  1  0  0  0  0
 46 49  1  0  0  0  0
 47 50  1  0  0  0  0
 47 51  1  0  0  0  0
 51 52  1  0  0  0  0
 51 53  1  0  0  0  0
 51 54  1  0  0  0  0
 50 55  1  0  0  0  0
 52 55  1  0  0  0  0
 52 56  1  0  0  0  0
 52 57  1  0  0  0  0
 50 58  1  0  0  0  0
 50 59  1  0  0  0  0
 55 60  1  0  0  0  0
 60 61  1  0  0  0  0
 60 62  1  0  0  0  0
 60 63  1  0  0  0  0
 61 64  1  0  0  0  0
 61 65  1  0  0  0  0
 61 66  1  0  0  0  0
 64 67  1  0  0  0  0
 64 68  1  0  0  0  0
 64 69  1  0  0  0  0
 67 70  1  0  0  0  0
 67 71  1  0  0  0  0
 67 72  1  0  0  0  0
 55 73  1  0  0  0  0
 74 75  2  0  0  0  0
 74 76  1  0  0  0  0
 74 77  1  0  0  0  0
 75 78  1  0  0  0  0
 75 79  1  0  0  0  0
 78 80  4  0  0  0  0
 80 81  4  0  0  0  0
 81 82  4  0  0  0  0
 78 83  4  0  0  0  0
 82 84  4  0  0  0  0
 83 84  4  0  0  0  0
 83 85  1  0  0  0  0
 84 86  1  0  0  0  0
 81 87  1  0  0  0  0
 80 88  1  0  0  0  0
 82 89  1  0  0  0  0
 89 90  1  0  0  0  0
 89 91  1  0  0  0  0
 89 92  1  0  0  0  0
 90 93  1  0  0  0  0
 90 94  1  0  0  0  0
 94 95  1  0  0  0  0
 94 96  1  0  0  0  0
 94 97  1  0  0  0  0
 93 98  1  0  0  0  0
 95 98  1  0  0  0  0
 95 99  1  0  0  0  0
 95100  1  0  0  0  0
 93101  1  0  0  0  0
 93102  1  0  0  0  0
 98103  1  0  0  0  0
103104  1  0  0  0  0
103105  1  0  0  0  0
103106  1  0  0  0  0
104107  1  0  0  0  0
104108  1  0  0  0  0
104109  1  0  0  0  0
107110  1  0  0  0  0
107111  1  0  0  0  0
107112  1  0  0  0  0
110113  1  0  0  0  0
110114  1  0  0  0  0
110115  1  0  0  0  0
 98116  1  0  0  0  0
M  END
