 xtb: 6.7.1 (edcfbbe)
          10212513543D

116116  0     0  0            999 V2000
    3.2982    1.6008    9.0735 C   0  0  0  0  0  0  0  0  0  0  0  0
    2.5340    5.8148    9.1570 C   0  0  0  0  0  0  0  0  0  0  0  0
    2.3783    0.9895    9.8150 F   0  0  0  0  0  0  0  0  0  0  0  0
    4.1046    0.6484    8.5850 F   0  0  0  0  0  0  0  0  0  0  0  0
    4.0414    2.3563    9.8857 F   0  0  0  0  0  0  0  0  0  0  0  0
    1.3142    5.4834    9.5594 F   0  0  0  0  0  0  0  0  0  0  0  0
    3.4082    5.3949   10.0682 F   0  0  0  0  0  0  0  0  0  0  0  0
    2.5710    7.1550    9.1229 F   0  0  0  0  0  0  0  0  0  0  0  0
    2.4712    2.6430    7.7297 S   0  0  0  0  0  0  0  0  0  0  0  0
    3.1045    5.2435    7.4575 S   0  0  0  0  0  0  0  0  0  0  0  0
    3.5780    3.7562    7.5254 N   0  0  0  0  0  0  0  0  0  0  0  0
    2.3411    1.7417    6.6201 O   0  0  0  0  0  0  0  0  0  0  0  0
    1.2818    3.1500    8.3344 O   0  0  0  0  0  0  0  0  0  0  0  0
    4.2558    6.0907    7.2396 O   0  0  0  0  0  0  0  0  0  0  0  0
    2.0186    5.4972    6.5526 O   0  0  0  0  0  0  0  0  0  0  0  0
   10.1507    6.6415    8.4490 C   0  0  0  0  0  0  0  0  0  0  0  0
    5.6393    8.0993    8.1896 C   0  0  0  0  0  0  0  0  0  0  0  0
   11.1283    6.9227    7.5804 F   0  0  0  0  0  0  0  0  0  0  0  0
   10.7062    6.5404    9.6530 F   0  0  0  0  0  0  0  0  0  0  0  0
    9.6922    5.4227    8.1125 F   0  0  0  0  0  0  0  0  0  0  0  0
    4.5662    8.5105    7.4868 F   0  0  0  0  0  0  0  0  0  0  0  0
    5.2346    7.6151    9.3359 F   0  0  0  0  0  0  0  0  0  0  0  0
    6.3202    9.2381    8.3964 F   0  0  0  0  0  0  0  0  0  0  0  0
    8.7706    7.9420    8.4330 S   0  0  0  0  0  0  0  0  0  0  0  0
    6.7025    6.9326    7.1497 S   0  0  0  0  0  0  0  0  0  0  0  0
    8.0763    7.7075    7.0231 N   0  0  0  0  0  0  0  0  0  0  0  0
    7.9200    7.5443    9.5080 O   0  0  0  0  0  0  0  0  0  0  0  0
    9.4801    9.1736    8.4841 O   0  0  0  0  0  0  0  0  0  0  0  0
    6.1501    6.9669    5.8031 O   0  0  0  0  0  0  0  0  0  0  0  0
    6.8437    5.6359    7.7264 O   0  0  0  0  0  0  0  0  0  0  0  0
    0.8883    0.6229    0.5599 C   0  0  0  0  0  0  0  0  0  0  0  0
    1.1783    0.9835    1.8043 C   0  0  0  0  0  0  0  0  0  0  0  0
    0.2865   -0.2459    0.3547 H   0  0  0  0  0  0  0  0  0  0  0  0
    1.2291    1.1706   -0.3023 H   0  0  0  0  0  0  0  0  0  0  0  0
    1.9744    2.1343    2.2129 C   0  0  0  0  0  0  0  0  0  0  0  0
    0.7915    0.3968    2.6284 H   0  0  0  0  0  0  0  0  0  0  0  0
    2.0432    2.4562    3.5707 C   0  0  0  0  0  0  0  0  0  0  0  0
    2.7813    3.5386    4.0118 C   0  0  0  0  0  0  0  0  0  0  0  0
    3.4841    4.3246    3.1082 C   0  0  0  0  0  0  0  0  0  0  0  0
    2.6812    2.9345    1.3114 C   0  0  0  0  0  0  0  0  0  0  0  0
    3.4234    4.0100    1.7539 C   0  0  0  0  0  0  0  0  0  0  0  0
    2.6555    2.7071    0.2566 H   0  0  0  0  0  0  0  0  0  0  0  0
    3.9622    4.6247    1.0470 H   0  0  0  0  0  0  0  0  0  0  0  0
    2.8096    3.7625    5.0675 H   0  0  0  0  0  0  0  0  0  0  0  0
    1.5274    1.8558    4.3036 H   0  0  0  0  0  0  0  0  0  0  0  0
    4.2918    5.5051    3.5748 C   0  0  0  0  0  0  0  0  0  0  0  0
    3.7030    6.7357    3.0443 N   0  0  0  0  0  0  0  0  0  0  0  0
    5.3042    5.4412    3.1639 H   0  0  0  0  0  0  0  0  0  0  0  0
    4.3572    5.5132    4.6699 H   0  0  0  0  0  0  0  0  0  0  0  0
    4.5322    7.8811    3.1695 C   0  0  0  0  0  0  0  0  0  0  0  0
    2.4673    7.1264    3.7055 C   0  0  0  0  0  0  0  0  0  0  0  0
    2.8781    8.1070    4.8320 C   0  0  0  0  0  0  0  0  0  0  0  0
    1.9521    6.2579    4.1090 H   0  0  0  0  0  0  0  0  0  0  0  0
    1.8235    7.6191    2.9707 H   0  0  0  0  0  0  0  0  0  0  0  0
    4.3075    8.3998    4.5660 N   0  0  0  0  0  0  0  0  0  0  0  0
    2.7663    7.6356    5.8064 H   0  0  0  0  0  0  0  0  0  0  0  0
    2.2989    9.0269    4.8000 H   0  0  0  0  0  0  0  0  0  0  0  0
    4.1952    8.6580    2.4712 H   0  0  0  0  0  0  0  0  0  0  0  0
    5.5868    7.6564    3.0149 H   0  0  0  0  0  0  0  0  0  0  0  0
    4.7438    9.7919    4.7652 C   0  0  0  0  0  0  0  0  0  0  0  0
    6.2638    9.9033    4.6397 C   0  0  0  0  0  0  0  0  0  0  0  0
    4.4369   10.1037    5.7630 H   0  0  0  0  0  0  0  0  0  0  0  0
    4.2349   10.4249    4.0303 H   0  0  0  0  0  0  0  0  0  0  0  0
    6.8261   11.1551    5.3130 C   0  0  0  0  0  0  0  0  0  0  0  0
    6.5558    9.9041    3.5871 H   0  0  0  0  0  0  0  0  0  0  0  0
    6.7231    9.0369    5.1206 H   0  0  0  0  0  0  0  0  0  0  0  0
    8.3494   11.1132    5.3070 C   0  0  0  0  0  0  0  0  0  0  0  0
    6.4824   11.1955    6.3470 H   0  0  0  0  0  0  0  0  0  0  0  0
    6.4687   12.0508    4.7983 H   0  0  0  0  0  0  0  0  0  0  0  0
    8.6988   10.2678    5.8965 H   0  0  0  0  0  0  0  0  0  0  0  0
    8.7576   12.0237    5.7361 H   0  0  0  0  0  0  0  0  0  0  0  0
    8.7247   11.0134    4.2896 H   0  0  0  0  0  0  0  0  0  0  0  0
    4.9005    7.7960    5.1924 H   0  0  0  0  0  0  0  0  0  0  0  0
    8.1944    2.4091   -0.0182 C   0  0  0  0  0  0  0  0  0  0  0  0
    8.4831    1.5212    0.9250 C   0  0  0  0  0  0  0  0  0  0  0  0
    8.8709    2.6013   -0.8328 H   0  0  0  0  0  0  0  0  0  0  0  0
    7.2826    2.9838   -0.0090 H   0  0  0  0  0  0  0  0  0  0  0  0
    7.6449    1.2174    2.0809 C   0  0  0  0  0  0  0  0  0  0  0  0
    9.4239    0.9891    0.8857 H   0  0  0  0  0  0  0  0  0  0  0  0
    6.2772    1.4954    2.1156 C   0  0  0  0  0  0  0  0  0  0  0  0
    5.5344    1.2741    3.2593 C   0  0  0  0  0  0  0  0  0  0  0  0
    6.1296    0.7755    4.4155 C   0  0  0  0  0  0  0  0  0  0  0  0
    8.2231    0.6352    3.2111 C   0  0  0  0  0  0  0  0  0  0  0  0
    7.4823    0.4293    4.3629 C   0  0  0  0  0  0  0  0  0  0  0  0
    9.2686    0.3609    3.1905 H   0  0  0  0  0  0  0  0  0  0  0  0
    7.9533   -0.0216    5.2256 H   0  0  0  0  0  0  0  0  0  0  0  0
    4.4781    1.4938    3.2626 H   0  0  0  0  0  0  0  0  0  0  0  0
    5.7845    1.8833    1.2379 H   0  0  0  0  0  0  0  0  0  0  0  0
    5.3712    0.7836    5.7195 C   0  0  0  0  0  0  0  0  0  0  0  0
    5.6878    1.9592    6.5306 N   0  0  0  0  0  0  0  0  0  0  0  0
    5.5836   -0.1031    6.3168 H   0  0  0  0  0  0  0  0  0  0  0  0
    4.2933    0.8163    5.5348 H   0  0  0  0  0  0  0  0  0  0  0  0
    5.8908    3.1687    5.8451 C   0  0  0  0  0  0  0  0  0  0  0  0
    6.7592    1.9019    7.5068 C   0  0  0  0  0  0  0  0  0  0  0  0
    7.8905    2.8174    6.9569 C   0  0  0  0  0  0  0  0  0  0  0  0
    7.0822    0.8731    7.6672 H   0  0  0  0  0  0  0  0  0  0  0  0
    6.3964    2.3082    8.4531 H   0  0  0  0  0  0  0  0  0  0  0  0
    7.4129    3.1886    5.6101 N   0  0  0  0  0  0  0  0  0  0  0  0
    8.8558    2.3145    6.9059 H   0  0  0  0  0  0  0  0  0  0  0  0
    7.9614    3.7292    7.5515 H   0  0  0  0  0  0  0  0  0  0  0  0
    5.6693    4.0316    6.4817 H   0  0  0  0  0  0  0  0  0  0  0  0
    5.3450    3.2230    4.9047 H   0  0  0  0  0  0  0  0  0  0  0  0
    7.9339    4.4286    5.0198 C   0  0  0  0  0  0  0  0  0  0  0  0
    9.4561    4.4682    4.9239 C   0  0  0  0  0  0  0  0  0  0  0  0
    7.5869    5.2646    5.6261 H   0  0  0  0  0  0  0  0  0  0  0  0
    7.4962    4.5183    4.0207 H   0  0  0  0  0  0  0  0  0  0  0  0
    9.9045    5.8311    4.3928 C   0  0  0  0  0  0  0  0  0  0  0  0
    9.8175    3.6729    4.2646 H   0  0  0  0  0  0  0  0  0  0  0  0
    9.8899    4.3266    5.9130 H   0  0  0  0  0  0  0  0  0  0  0  0
   11.4225    5.9612    4.3846 C   0  0  0  0  0  0  0  0  0  0  0  0
    9.4715    6.6115    5.0241 H   0  0  0  0  0  0  0  0  0  0  0  0
    9.5222    5.9647    3.3768 H   0  0  0  0  0  0  0  0  0  0  0  0
   11.8737    5.1950    3.7570 H   0  0  0  0  0  0  0  0  0  0  0  0
   11.8202    5.8660    5.3913 H   0  0  0  0  0  0  0  0  0  0  0  0
   11.7127    6.9368    4.0031 H   0  0  0  0  0  0  0  0  0  0  0  0
    7.6120    2.3947    4.9747 H   0  0  0  0  0  0  0  0  0  0  0  0
  1  3  1  0  0  0  0
  1  4  1  0  0  0  0
  1  5  1  0  0  0  0
  2  6  1  0  0  0  0
  2  7  1  0  0  0  0
  2  8  1  0  0  0  0
  1  9  1  0  0  0  0
  2 10  1  0  0  0  0
  9 11  1  0  0  0  0
 10 11  1  0  0  0  0
  9 12  2  0  0  0  0
  9 13  2  0  0  0  0
 10 14  2  0  0  0  0
 10 15  2  0  0  0  0
 16 18  1  0  0  0  0
 16 19  1  0  0  0  0
 16 20  1  0  0  0  0
 17 21  1  0  0  0  0
 17 22  1  0  0  0  0
 17 23  1  0  0  0  0
 16 24  1  0  0  0  0
 17 25  1  0  0  0  0
 24 26  1  0  0  0  0
 25 26  1  0  0  0  0
 24 27  2  0  0  0  0
 24 28  2  0  0  0  0
 25 29  2  0  0  0  0
 25 30  2  0  0  0  0
 31 32  2  0  0  0  0
 31 33  1  0  0  0  0
 31 34  1  0  0  0  0
 32 35  1  0  0  0  0
 32 36  1  0  0  0  0
 35 37  4  0  0  0  0
 37 38  4  0  0  0  0
 38 39  4  0  0  0  0
 35 40  4  0  0  0  0
 39 41  4  0  0  0  0
 40 41  4  0  0  0  0
 40 42  1  0  0  0  0
 41 43  1  0  0  0  0
 38 44  1  0  0  0  0
 37 45  1  0  0  0  0
 39 46  1  0  0  0  0
 46 47  1  0  0  0  0
 46 48  1  0  0  0  0
 46 49  1  0  0  0  0
 47 50  1  0  0  0  0
 47 51  1  0  0  0  0
 51 52  1  0  0  0  0
 51 53  1  0  0  0  0
 51 54  1  0  0  0  0
 50 55  1  0  0  0  0
 52 55  1  0  0  0  0
 52 56  1  0  0  0  0
 52 57  1  0  0  0  0
 50 58  1  0  0  0  0
 50 59  1  0  0  0  0
 55 60  1  0  0  0  0
 60 61  1  0  0  0  0
 60 62  1  0  0  0  0
 60 63  1  0  0  0  0
 61 64  1  0  0  0  0
 61 65  1  0  0  0  0
 61 66  1  0  0  0  0
 64 67  1  0  0  0  0
 64 68  1  0  0  0  0
 64 69  1  0  0  0  0
 67 70  1  0  0  0  0
 67 71  1  0  0  0  0
 67 72  1  0  0  0  0
 55 73  1  0  0  0  0
 74 75  2  0  0  0  0
 74 76  1  0  0  0  0
 74 77  1  0  0  0  0
 75 78  1  0  0  0  0
 75 79  1  0  0  0  0
 78 80  4  0  0  0  0
 80 81  4  0  0  0  0
 81 82  4  0  0  0  0
 78 83  4  0  0  0  0
 82 84  4  0  0  0  0
 83 84  4  0  0  0  0
 83 85  1  0  0  0  0
 84 86  1  0  0  0  0
 81 87  1  0  0  0  0
 80 88  1  0  0  0  0
 82 89  1  0  0  0  0
 89 90  1  0  0  0  0
 89 91  1  0  0  0  0
 89 92  1  0  0  0  0
 90 93  1  0  0  0  0
 90 94  1  0  0  0  0
 94 95  1  0  0  0  0
 94 96  1  0  0  0  0
 94 97  1  0  0  0  0
 93 98  1  0  0  0  0
 95 98  1  0  0  0  0
 95 99  1  0  0  0  0
 95100  1  0  0  0  0
 93101  1  0  0  0  0
 93102  1  0  0  0  0
 98103  1  0  0  0  0
103104  1  0  0  0  0
103105  1  0  0  0  0
103106  1  0  0  0  0
104107  1  0  0  0  0
104108  1  0  0  0  0
104109  1  0  0  0  0
107110  1  0  0  0  0
107111  1  0  0  0  0
107112  1  0  0  0  0
110113  1  0  0  0  0
110114  1  0  0  0  0
110115  1  0  0  0  0
 98116  1  0  0  0  0
M  END
