 xtb: 6.7.1 (edcfbbe)
          10212513423D

116116  0     0  0            999 V2000
    1.5143    4.4259   10.8155 C   0  0  0  0  0  0  0  0  0  0  0  0
    2.0092   -0.0711   11.3393 C   0  0  0  0  0  0  0  0  0  0  0  0
    0.8692    3.7699    9.8511 F   0  0  0  0  0  0  0  0  0  0  0  0
    0.7274    5.4217   11.2231 F   0  0  0  0  0  0  0  0  0  0  0  0
    2.5954    4.9882   10.2467 F   0  0  0  0  0  0  0  0  0  0  0  0
    1.3312    0.5229   10.3536 F   0  0  0  0  0  0  0  0  0  0  0  0
    2.4775   -1.2252   10.8389 F   0  0  0  0  0  0  0  0  0  0  0  0
    1.1665   -0.3777   12.3126 F   0  0  0  0  0  0  0  0  0  0  0  0
    2.0694    3.2711   12.2072 S   0  0  0  0  0  0  0  0  0  0  0  0
    3.4482    1.0277   11.8930 S   0  0  0  0  0  0  0  0  0  0  0  0
    3.0869    2.4444   11.3075 N   0  0  0  0  0  0  0  0  0  0  0  0
    2.6980    4.1503   13.1375 O   0  0  0  0  0  0  0  0  0  0  0  0
    0.9218    2.5257   12.5981 O   0  0  0  0  0  0  0  0  0  0  0  0
    4.5740    0.5116   11.1536 O   0  0  0  0  0  0  0  0  0  0  0  0
    3.5032    0.9509   13.3130 O   0  0  0  0  0  0  0  0  0  0  0  0
    6.5724    0.6436    4.1793 C   0  0  0  0  0  0  0  0  0  0  0  0
    5.0319    3.8912    1.7120 C   0  0  0  0  0  0  0  0  0  0  0  0
    6.0875    0.0802    5.2821 F   0  0  0  0  0  0  0  0  0  0  0  0
    5.8527    0.2389    3.1420 F   0  0  0  0  0  0  0  0  0  0  0  0
    7.8227    0.1748    4.0025 F   0  0  0  0  0  0  0  0  0  0  0  0
    3.9184    4.1937    1.0535 F   0  0  0  0  0  0  0  0  0  0  0  0
    6.0363    4.5508    1.1154 F   0  0  0  0  0  0  0  0  0  0  0  0
    5.2714    2.5894    1.5267 F   0  0  0  0  0  0  0  0  0  0  0  0
    6.6534    2.5165    4.3311 S   0  0  0  0  0  0  0  0  0  0  0  0
    4.9207    4.3168    3.5616 S   0  0  0  0  0  0  0  0  0  0  0  0
    5.1447    2.9016    4.2311 N   0  0  0  0  0  0  0  0  0  0  0  0
    7.2432    2.7046    5.6283 O   0  0  0  0  0  0  0  0  0  0  0  0
    7.4707    2.9010    3.2111 O   0  0  0  0  0  0  0  0  0  0  0  0
    3.6111    4.8225    3.7706 O   0  0  0  0  0  0  0  0  0  0  0  0
    6.0266    5.1972    3.7837 O   0  0  0  0  0  0  0  0  0  0  0  0
    8.8891    7.6743    6.7136 C   0  0  0  0  0  0  0  0  0  0  0  0
    9.9635    7.3632    6.0003 C   0  0  0  0  0  0  0  0  0  0  0  0
    8.9634    7.9639    7.7472 H   0  0  0  0  0  0  0  0  0  0  0  0
    7.8983    7.6636    6.2938 H   0  0  0  0  0  0  0  0  0  0  0  0
    9.9523    6.9915    4.5889 C   0  0  0  0  0  0  0  0  0  0  0  0
   10.9461    7.4227    6.4541 H   0  0  0  0  0  0  0  0  0  0  0  0
    8.8098    6.5078    3.9506 C   0  0  0  0  0  0  0  0  0  0  0  0
    8.8247    6.2119    2.6018 C   0  0  0  0  0  0  0  0  0  0  0  0
    9.9779    6.3890    1.8449 C   0  0  0  0  0  0  0  0  0  0  0  0
   11.1157    7.1433    3.8315 C   0  0  0  0  0  0  0  0  0  0  0  0
   11.1252    6.8559    2.4801 C   0  0  0  0  0  0  0  0  0  0  0  0
   12.0128    7.5192    4.3037 H   0  0  0  0  0  0  0  0  0  0  0  0
   12.0276    7.0251    1.9064 H   0  0  0  0  0  0  0  0  0  0  0  0
    7.9163    5.8483    2.1487 H   0  0  0  0  0  0  0  0  0  0  0  0
    7.8928    6.3491    4.4929 H   0  0  0  0  0  0  0  0  0  0  0  0
    9.9914    6.0923    0.3684 C   0  0  0  0  0  0  0  0  0  0  0  0
   10.2725    4.7093   -0.0173 N   0  0  0  0  0  0  0  0  0  0  0  0
   10.7566    6.7075   -0.1182 H   0  0  0  0  0  0  0  0  0  0  0  0
    9.0276    6.3490   -0.0708 H   0  0  0  0  0  0  0  0  0  0  0  0
   11.3284    4.0203    0.5987 C   0  0  0  0  0  0  0  0  0  0  0  0
    9.1942    3.7553   -0.1642 C   0  0  0  0  0  0  0  0  0  0  0  0
    9.3869    2.6952    0.9482 C   0  0  0  0  0  0  0  0  0  0  0  0
    9.2703    3.2832   -1.1515 H   0  0  0  0  0  0  0  0  0  0  0  0
    8.2254    4.2449   -0.0876 H   0  0  0  0  0  0  0  0  0  0  0  0
   10.6975    3.0136    1.5816 N   0  0  0  0  0  0  0  0  0  0  0  0
    9.4091    1.6900    0.5304 H   0  0  0  0  0  0  0  0  0  0  0  0
    8.5955    2.7523    1.6956 H   0  0  0  0  0  0  0  0  0  0  0  0
   12.0257    4.6826    1.1104 H   0  0  0  0  0  0  0  0  0  0  0  0
   11.8640    3.4029   -0.1356 H   0  0  0  0  0  0  0  0  0  0  0  0
   10.5968    3.4625    2.9963 C   0  0  0  0  0  0  0  0  0  0  0  0
   10.7236    2.2771    3.9454 C   0  0  0  0  0  0  0  0  0  0  0  0
    9.6340    3.9515    3.1510 H   0  0  0  0  0  0  0  0  0  0  0  0
   11.3941    4.1812    3.1872 H   0  0  0  0  0  0  0  0  0  0  0  0
   10.4914    2.6915    5.4010 C   0  0  0  0  0  0  0  0  0  0  0  0
   11.7190    1.8298    3.8511 H   0  0  0  0  0  0  0  0  0  0  0  0
    9.9743    1.5276    3.6875 H   0  0  0  0  0  0  0  0  0  0  0  0
   11.4995    3.7148    5.9112 C   0  0  0  0  0  0  0  0  0  0  0  0
   10.5517    1.7932    6.0169 H   0  0  0  0  0  0  0  0  0  0  0  0
    9.4797    3.0851    5.4930 H   0  0  0  0  0  0  0  0  0  0  0  0
   11.3796    3.8448    6.9833 H   0  0  0  0  0  0  0  0  0  0  0  0
   11.3532    4.6829    5.4397 H   0  0  0  0  0  0  0  0  0  0  0  0
   12.5185    3.3800    5.7251 H   0  0  0  0  0  0  0  0  0  0  0  0
   11.2805    2.1746    1.5997 H   0  0  0  0  0  0  0  0  0  0  0  0
    2.4707    7.1091    6.2775 C   0  0  0  0  0  0  0  0  0  0  0  0
    3.2268    7.4592    7.3118 C   0  0  0  0  0  0  0  0  0  0  0  0
    1.5110    7.5705    6.1175 H   0  0  0  0  0  0  0  0  0  0  0  0
    2.7621    6.3635    5.5565 H   0  0  0  0  0  0  0  0  0  0  0  0
    4.5223    6.8857    7.6512 C   0  0  0  0  0  0  0  0  0  0  0  0
    2.8671    8.2058    8.0088 H   0  0  0  0  0  0  0  0  0  0  0  0
    5.1139    7.1916    8.8786 C   0  0  0  0  0  0  0  0  0  0  0  0
    6.3083    6.6111    9.2615 C   0  0  0  0  0  0  0  0  0  0  0  0
    6.9544    5.7008    8.4321 C   0  0  0  0  0  0  0  0  0  0  0  0
    5.2046    6.0186    6.7954 C   0  0  0  0  0  0  0  0  0  0  0  0
    6.3966    5.4342    7.1814 C   0  0  0  0  0  0  0  0  0  0  0  0
    4.8131    5.7957    5.8164 H   0  0  0  0  0  0  0  0  0  0  0  0
    6.9050    4.7793    6.4872 H   0  0  0  0  0  0  0  0  0  0  0  0
    6.7399    6.8681   10.2184 H   0  0  0  0  0  0  0  0  0  0  0  0
    4.6207    7.8809    9.5473 H   0  0  0  0  0  0  0  0  0  0  0  0
    8.1861    4.9592    8.8873 C   0  0  0  0  0  0  0  0  0  0  0  0
    7.9246    3.6666    9.5258 N   0  0  0  0  0  0  0  0  0  0  0  0
    8.7379    5.5551    9.6183 H   0  0  0  0  0  0  0  0  0  0  0  0
    8.8415    4.7660    8.0350 H   0  0  0  0  0  0  0  0  0  0  0  0
    7.3780    2.6534    8.6924 C   0  0  0  0  0  0  0  0  0  0  0  0
    6.9920    3.7010   10.6417 C   0  0  0  0  0  0  0  0  0  0  0  0
    5.5972    3.4489   10.0298 C   0  0  0  0  0  0  0  0  0  0  0  0
    7.0479    4.6456   11.1751 H   0  0  0  0  0  0  0  0  0  0  0  0
    7.2509    2.8934   11.3294 H   0  0  0  0  0  0  0  0  0  0  0  0
    5.8789    2.8717    8.6909 N   0  0  0  0  0  0  0  0  0  0  0  0
    5.0229    4.3673    9.9309 H   0  0  0  0  0  0  0  0  0  0  0  0
    5.0129    2.7458   10.6218 H   0  0  0  0  0  0  0  0  0  0  0  0
    7.5474    1.6756    9.1549 H   0  0  0  0  0  0  0  0  0  0  0  0
    7.7600    2.6682    7.6720 H   0  0  0  0  0  0  0  0  0  0  0  0
    5.1045    1.6659    8.3391 C   0  0  0  0  0  0  0  0  0  0  0  0
    3.6274    1.9803    8.1279 C   0  0  0  0  0  0  0  0  0  0  0  0
    5.2042    0.9455    9.1557 H   0  0  0  0  0  0  0  0  0  0  0  0
    5.5392    1.2669    7.4196 H   0  0  0  0  0  0  0  0  0  0  0  0
    3.3833    3.0712    7.0821 C   0  0  0  0  0  0  0  0  0  0  0  0
    3.1755    2.2587    9.0809 H   0  0  0  0  0  0  0  0  0  0  0  0
    3.1494    1.0569    7.8003 H   0  0  0  0  0  0  0  0  0  0  0  0
    1.9479    3.0431    6.5686 C   0  0  0  0  0  0  0  0  0  0  0  0
    4.0583    2.9368    6.2312 H   0  0  0  0  0  0  0  0  0  0  0  0
    3.5661    4.0564    7.5194 H   0  0  0  0  0  0  0  0  0  0  0  0
    1.7250    2.0793    6.1180 H   0  0  0  0  0  0  0  0  0  0  0  0
    1.8132    3.8117    5.8124 H   0  0  0  0  0  0  0  0  0  0  0  0
    1.2495    3.2134    7.3832 H   0  0  0  0  0  0  0  0  0  0  0  0
    5.6876    3.5852    7.9717 H   0  0  0  0  0  0  0  0  0  0  0  0
  1  3  1  0  0  0  0
  1  4  1  0  0  0  0
  1  5  1  0  0  0  0
  2  6  1  0  0  0  0
  2  7  1  0  0  0  0
  2  8  1  0  0  0  0
  1  9  1  0  0  0  0
  2 10  1  0  0  0  0
  9 11  1  0  0  0  0
 10 11  1  0  0  0  0
  9 12  2  0  0  0  0
  9 13  2  0  0  0  0
 10 14  2  0  0  0  0
 10 15  2  0  0  0  0
 16 18  1  0  0  0  0
 16 19  1  0  0  0  0
 16 20  1  0  0  0  0
 17 21  1  0  0  0  0
 17 22  1  0  0  0  0
 17 23  1  0  0  0  0
 16 24  1  0  0  0  0
 17 25  1  0  0  0  0
 24 26  1  0  0  0  0
 25 26  1  0  0  0  0
 24 27  2  0  0  0  0
 24 28  2  0  0  0  0
 25 29  2  0  0  0  0
 25 30  2  0  0  0  0
 31 32  2  0  0  0  0
 31 33  1  0  0  0  0
 31 34  1  0  0  0  0
 32 35  1  0  0  0  0
 32 36  1  0  0  0  0
 35 37  4  0  0  0  0
 37 38  4  0  0  0  0
 38 39  4  0  0  0  0
 35 40  4  0  0  0  0
 39 41  4  0  0  0  0
 40 41  4  0  0  0  0
 40 42  1  0  0  0  0
 41 43  1  0  0  0  0
 38 44  1  0  0  0  0
 37 45  1  0  0  0  0
 39 46  1  0  0  0  0
 46 47  1  0  0  0  0
 46 48  1  0  0  0  0
 46 49  1  0  0  0  0
 47 50  1  0  0  0  0
 47 51  1  0  0  0  0
 51 52  1  0  0  0  0
 51 53  1  0  0  0  0
 51 54  1  0  0  0  0
 50 55  1  0  0  0  0
 52 55  1  0  0  0  0
 52 56  1  0  0  0  0
 52 57  1  0  0  0  0
 50 58  1  0  0  0  0
 50 59  1  0  0  0  0
 55 60  1  0  0  0  0
 60 61  1  0  0  0  0
 60 62  1  0  0  0  0
 60 63  1  0  0  0  0
 61 64  1  0  0  0  0
 61 65  1  0  0  0  0
 61 66  1  0  0  0  0
 64 67  1  0  0  0  0
 64 68  1  0  0  0  0
 64 69  1  0  0  0  0
 67 70  1  0  0  0  0
 67 71  1  0  0  0  0
 67 72  1  0  0  0  0
 55 73  1  0  0  0  0
 74 75  2  0  0  0  0
 74 76  1  0  0  0  0
 74 77  1  0  0  0  0
 75 78  1  0  0  0  0
 75 79  1  0  0  0  0
 78 80  4  0  0  0  0
 80 81  4  0  0  0  0
 81 82  4  0  0  0  0
 78 83  4  0  0  0  0
 82 84  4  0  0  0  0
 83 84  4  0  0  0  0
 83 85  1  0  0  0  0
 84 86  1  0  0  0  0
 81 87  1  0  0  0  0
 80 88  1  0  0  0  0
 82 89  1  0  0  0  0
 89 90  1  0  0  0  0
 89 91  1  0  0  0  0
 89 92  1  0  0  0  0
 90 93  1  0  0  0  0
 90 94  1  0  0  0  0
 94 95  1  0  0  0  0
 94 96  1  0  0  0  0
 94 97  1  0  0  0  0
 93 98  1  0  0  0  0
 95 98  1  0  0  0  0
 95 99  1  0  0  0  0
 95100  1  0  0  0  0
 93101  1  0  0  0  0
 93102  1  0  0  0  0
 98103  1  0  0  0  0
103104  1  0  0  0  0
103105  1  0  0  0  0
103106  1  0  0  0  0
104107  1  0  0  0  0
104108  1  0  0  0  0
104109  1  0  0  0  0
107110  1  0  0  0  0
107111  1  0  0  0  0
107112  1  0  0  0  0
110113  1  0  0  0  0
110114  1  0  0  0  0
110115  1  0  0  0  0
 98116  1  0  0  0  0
M  END
