 xtb: 6.7.1 (edcfbbe)
          10212513473D

116116  0     0  0            999 V2000
    7.3013    6.6724    0.8539 C   0  0  0  0  0  0  0  0  0  0  0  0
    6.1434    2.7314    2.7530 C   0  0  0  0  0  0  0  0  0  0  0  0
    8.3313    6.0287    0.3291 F   0  0  0  0  0  0  0  0  0  0  0  0
    6.3011    6.6941   -0.0229 F   0  0  0  0  0  0  0  0  0  0  0  0
    7.6941    7.9495    1.0165 F   0  0  0  0  0  0  0  0  0  0  0  0
    7.3161    2.2616    2.3576 F   0  0  0  0  0  0  0  0  0  0  0  0
    6.2677    3.1713    4.0065 F   0  0  0  0  0  0  0  0  0  0  0  0
    5.2935    1.6984    2.7940 F   0  0  0  0  0  0  0  0  0  0  0  0
    6.7738    5.9829    2.5441 S   0  0  0  0  0  0  0  0  0  0  0  0
    5.4654    4.0218    1.5339 S   0  0  0  0  0  0  0  0  0  0  0  0
    5.3313    5.3963    2.3273 N   0  0  0  0  0  0  0  0  0  0  0  0
    7.7307    4.9581    2.8487 O   0  0  0  0  0  0  0  0  0  0  0  0
    6.8135    7.1235    3.4144 O   0  0  0  0  0  0  0  0  0  0  0  0
    4.1596    3.5343    1.2020 O   0  0  0  0  0  0  0  0  0  0  0  0
    6.4295    4.1021    0.4881 O   0  0  0  0  0  0  0  0  0  0  0  0
    3.8262    7.2886    7.2319 C   0  0  0  0  0  0  0  0  0  0  0  0
    1.6442   10.8809    6.6615 C   0  0  0  0  0  0  0  0  0  0  0  0
    3.4985    8.2281    8.1193 F   0  0  0  0  0  0  0  0  0  0  0  0
    2.8553    6.3929    7.1682 F   0  0  0  0  0  0  0  0  0  0  0  0
    4.9000    6.6519    7.7391 F   0  0  0  0  0  0  0  0  0  0  0  0
    0.3313   10.8428    6.8875 F   0  0  0  0  0  0  0  0  0  0  0  0
    2.2673   10.7937    7.8338 F   0  0  0  0  0  0  0  0  0  0  0  0
    1.9293   12.0712    6.1381 F   0  0  0  0  0  0  0  0  0  0  0  0
    4.3512    8.0826    5.5841 S   0  0  0  0  0  0  0  0  0  0  0  0
    2.1312    9.4676    5.5170 S   0  0  0  0  0  0  0  0  0  0  0  0
    3.7070    9.5125    5.6111 N   0  0  0  0  0  0  0  0  0  0  0  0
    5.7744    8.1535    5.7267 O   0  0  0  0  0  0  0  0  0  0  0  0
    3.8145    7.2184    4.5722 O   0  0  0  0  0  0  0  0  0  0  0  0
    1.5973    9.8434    4.2409 O   0  0  0  0  0  0  0  0  0  0  0  0
    1.5867    8.2879    6.1118 O   0  0  0  0  0  0  0  0  0  0  0  0
    5.4617    3.6767    8.3450 C   0  0  0  0  0  0  0  0  0  0  0  0
    4.1499    3.5685    8.1780 C   0  0  0  0  0  0  0  0  0  0  0  0
    5.9076    3.6681    9.3245 H   0  0  0  0  0  0  0  0  0  0  0  0
    6.1391    3.7596    7.5124 H   0  0  0  0  0  0  0  0  0  0  0  0
    3.4596    3.5567    6.8933 C   0  0  0  0  0  0  0  0  0  0  0  0
    3.5104    3.4468    9.0433 H   0  0  0  0  0  0  0  0  0  0  0  0
    4.0260    4.0862    5.7340 C   0  0  0  0  0  0  0  0  0  0  0  0
    3.3690    4.0062    4.5236 C   0  0  0  0  0  0  0  0  0  0  0  0
    2.1242    3.3933    4.4285 C   0  0  0  0  0  0  0  0  0  0  0  0
    2.1861    2.9960    6.8035 C   0  0  0  0  0  0  0  0  0  0  0  0
    1.5329    2.9098    5.5898 C   0  0  0  0  0  0  0  0  0  0  0  0
    1.7167    2.6016    7.6933 H   0  0  0  0  0  0  0  0  0  0  0  0
    0.5591    2.4421    5.5406 H   0  0  0  0  0  0  0  0  0  0  0  0
    3.8463    4.4077    3.6427 H   0  0  0  0  0  0  0  0  0  0  0  0
    4.9880    4.5735    5.7676 H   0  0  0  0  0  0  0  0  0  0  0  0
    1.4506    3.2220    3.0907 C   0  0  0  0  0  0  0  0  0  0  0  0
    0.8729    4.4148    2.4807 N   0  0  0  0  0  0  0  0  0  0  0  0
    0.6312    2.5029    3.1898 H   0  0  0  0  0  0  0  0  0  0  0  0
    2.1727    2.8242    2.3747 H   0  0  0  0  0  0  0  0  0  0  0  0
    1.7332    5.2922    1.7669 C   0  0  0  0  0  0  0  0  0  0  0  0
    0.0808    5.2730    3.3333 C   0  0  0  0  0  0  0  0  0  0  0  0
    1.0410    6.3893    3.7738 C   0  0  0  0  0  0  0  0  0  0  0  0
   -0.3248    4.7241    4.1796 H   0  0  0  0  0  0  0  0  0  0  0  0
   -0.7471    5.6859    2.7469 H   0  0  0  0  0  0  0  0  0  0  0  0
    2.0019    6.5112    2.6449 N   0  0  0  0  0  0  0  0  0  0  0  0
    1.5818    6.1131    4.6779 H   0  0  0  0  0  0  0  0  0  0  0  0
    0.5430    7.3379    3.9609 H   0  0  0  0  0  0  0  0  0  0  0  0
    1.2008    5.6697    0.8850 H   0  0  0  0  0  0  0  0  0  0  0  0
    2.6554    4.7985    1.4589 H   0  0  0  0  0  0  0  0  0  0  0  0
    1.8579    7.7753    1.8920 C   0  0  0  0  0  0  0  0  0  0  0  0
    2.9905    7.9959    0.8908 C   0  0  0  0  0  0  0  0  0  0  0  0
    1.8358    8.6000    2.6057 H   0  0  0  0  0  0  0  0  0  0  0  0
    0.8920    7.7394    1.3791 H   0  0  0  0  0  0  0  0  0  0  0  0
    4.2448    8.6110    1.5165 C   0  0  0  0  0  0  0  0  0  0  0  0
    2.6267    8.6700    0.1119 H   0  0  0  0  0  0  0  0  0  0  0  0
    3.2596    7.0507    0.4158 H   0  0  0  0  0  0  0  0  0  0  0  0
    4.0452   10.0588    1.9524 C   0  0  0  0  0  0  0  0  0  0  0  0
    5.0349    8.5889    0.7660 H   0  0  0  0  0  0  0  0  0  0  0  0
    4.5768    8.0105    2.3653 H   0  0  0  0  0  0  0  0  0  0  0  0
    3.7483   10.6733    1.1041 H   0  0  0  0  0  0  0  0  0  0  0  0
    4.9742   10.4518    2.3561 H   0  0  0  0  0  0  0  0  0  0  0  0
    3.2875   10.1449    2.7247 H   0  0  0  0  0  0  0  0  0  0  0  0
    2.9557    6.4943    3.0398 H   0  0  0  0  0  0  0  0  0  0  0  0
    4.3795   12.7401    4.1820 C   0  0  0  0  0  0  0  0  0  0  0  0
    5.5618   13.1341    4.6350 C   0  0  0  0  0  0  0  0  0  0  0  0
    3.8383   13.3081    3.4451 H   0  0  0  0  0  0  0  0  0  0  0  0
    3.9232   11.8233    4.5147 H   0  0  0  0  0  0  0  0  0  0  0  0
    6.3479   12.3883    5.6140 C   0  0  0  0  0  0  0  0  0  0  0  0
    6.0271   14.0327    4.2469 H   0  0  0  0  0  0  0  0  0  0  0  0
    5.7458   11.5997    6.5926 C   0  0  0  0  0  0  0  0  0  0  0  0
    6.5087   10.8529    7.4682 C   0  0  0  0  0  0  0  0  0  0  0  0
    7.8966   10.8706    7.3917 C   0  0  0  0  0  0  0  0  0  0  0  0
    7.7401   12.4551    5.5800 C   0  0  0  0  0  0  0  0  0  0  0  0
    8.5007   11.6981    6.4480 C   0  0  0  0  0  0  0  0  0  0  0  0
    8.2266   13.0874    4.8507 H   0  0  0  0  0  0  0  0  0  0  0  0
    9.5806   11.7554    6.4043 H   0  0  0  0  0  0  0  0  0  0  0  0
    6.0137   10.2625    8.2250 H   0  0  0  0  0  0  0  0  0  0  0  0
    4.6728   11.5699    6.6670 H   0  0  0  0  0  0  0  0  0  0  0  0
    8.7475    9.9616    8.2382 C   0  0  0  0  0  0  0  0  0  0  0  0
    8.9064    8.6099    7.6979 N   0  0  0  0  0  0  0  0  0  0  0  0
    8.3252    9.8482    9.2373 H   0  0  0  0  0  0  0  0  0  0  0  0
    9.7547   10.3795    8.3359 H   0  0  0  0  0  0  0  0  0  0  0  0
    9.2414    8.5405    6.2868 C   0  0  0  0  0  0  0  0  0  0  0  0
    7.7822    7.7088    7.9054 C   0  0  0  0  0  0  0  0  0  0  0  0
    8.0772    6.5952    6.9149 C   0  0  0  0  0  0  0  0  0  0  0  0
    6.8232    8.1724    7.6584 H   0  0  0  0  0  0  0  0  0  0  0  0
    7.7749    7.3579    8.9380 H   0  0  0  0  0  0  0  0  0  0  0  0
    8.5662    7.3371    5.7294 N   0  0  0  0  0  0  0  0  0  0  0  0
    7.1980    6.0083    6.6663 H   0  0  0  0  0  0  0  0  0  0  0  0
    8.8809    5.9536    7.2826 H   0  0  0  0  0  0  0  0  0  0  0  0
   10.3279    8.4128    6.1992 H   0  0  0  0  0  0  0  0  0  0  0  0
    8.9306    9.4308    5.7260 H   0  0  0  0  0  0  0  0  0  0  0  0
    9.4494    6.5360    4.8567 C   0  0  0  0  0  0  0  0  0  0  0  0
    9.9925    7.3340    3.6752 C   0  0  0  0  0  0  0  0  0  0  0  0
    8.8747    5.6951    4.4631 H   0  0  0  0  0  0  0  0  0  0  0  0
   10.2735    6.1588    5.4699 H   0  0  0  0  0  0  0  0  0  0  0  0
   10.7403    6.4127    2.7090 C   0  0  0  0  0  0  0  0  0  0  0  0
   10.6716    8.1209    4.0111 H   0  0  0  0  0  0  0  0  0  0  0  0
    9.1564    7.8020    3.1558 H   0  0  0  0  0  0  0  0  0  0  0  0
   11.3059    7.1916    1.5283 C   0  0  0  0  0  0  0  0  0  0  0  0
   10.0552    5.6439    2.3517 H   0  0  0  0  0  0  0  0  0  0  0  0
   11.5564    5.9167    3.2397 H   0  0  0  0  0  0  0  0  0  0  0  0
   10.5126    7.7197    1.0072 H   0  0  0  0  0  0  0  0  0  0  0  0
   11.7842    6.5156    0.8258 H   0  0  0  0  0  0  0  0  0  0  0  0
   12.0422    7.9199    1.8631 H   0  0  0  0  0  0  0  0  0  0  0  0
    7.7244    7.6117    5.1815 H   0  0  0  0  0  0  0  0  0  0  0  0
  1  3  1  0  0  0  0
  1  4  1  0  0  0  0
  1  5  1  0  0  0  0
  2  6  1  0  0  0  0
  2  7  1  0  0  0  0
  2  8  1  0  0  0  0
  1  9  1  0  0  0  0
  2 10  1  0  0  0  0
  9 11  1  0  0  0  0
 10 11  1  0  0  0  0
  9 12  2  0  0  0  0
  9 13  2  0  0  0  0
 10 14  2  0  0  0  0
 10 15  2  0  0  0  0
 16 18  1  0  0  0  0
 16 19  1  0  0  0  0
 16 20  1  0  0  0  0
 17 21  1  0  0  0  0
 17 22  1  0  0  0  0
 17 23  1  0  0  0  0
 16 24  1  0  0  0  0
 17 25  1  0  0  0  0
 24 26  1  0  0  0  0
 25 26  1  0  0  0  0
 24 27  2  0  0  0  0
 24 28  2  0  0  0  0
 25 29  2  0  0  0  0
 25 30  2  0  0  0  0
 31 32  2  0  0  0  0
 31 33  1  0  0  0  0
 31 34  1  0  0  0  0
 32 35  1  0  0  0  0
 32 36  1  0  0  0  0
 35 37  4  0  0  0  0
 37 38  4  0  0  0  0
 38 39  4  0  0  0  0
 35 40  4  0  0  0  0
 39 41  4  0  0  0  0
 40 41  4  0  0  0  0
 40 42  1  0  0  0  0
 41 43  1  0  0  0  0
 38 44  1  0  0  0  0
 37 45  1  0  0  0  0
 39 46  1  0  0  0  0
 46 47  1  0  0  0  0
 46 48  1  0  0  0  0
 46 49  1  0  0  0  0
 47 50  1  0  0  0  0
 47 51  1  0  0  0  0
 51 52  1  0  0  0  0
 51 53  1  0  0  0  0
 51 54  1  0  0  0  0
 50 55  1  0  0  0  0
 52 55  1  0  0  0  0
 52 56  1  0  0  0  0
 52 57  1  0  0  0  0
 50 58  1  0  0  0  0
 50 59  1  0  0  0  0
 55 60  1  0  0  0  0
 60 61  1  0  0  0  0
 60 62  1  0  0  0  0
 60 63  1  0  0  0  0
 61 64  1  0  0  0  0
 61 65  1  0  0  0  0
 61 66  1  0  0  0  0
 64 67  1  0  0  0  0
 64 68  1  0  0  0  0
 64 69  1  0  0  0  0
 67 70  1  0  0  0  0
 67 71  1  0  0  0  0
 67 72  1  0  0  0  0
 55 73  1  0  0  0  0
 74 75  2  0  0  0  0
 74 76  1  0  0  0  0
 74 77  1  0  0  0  0
 75 78  1  0  0  0  0
 75 79  1  0  0  0  0
 78 80  4  0  0  0  0
 80 81  4  0  0  0  0
 81 82  4  0  0  0  0
 78 83  4  0  0  0  0
 82 84  4  0  0  0  0
 83 84  4  0  0  0  0
 83 85  1  0  0  0  0
 84 86  1  0  0  0  0
 81 87  1  0  0  0  0
 80 88  1  0  0  0  0
 82 89  1  0  0  0  0
 89 90  1  0  0  0  0
 89 91  1  0  0  0  0
 89 92  1  0  0  0  0
 90 93  1  0  0  0  0
 90 94  1  0  0  0  0
 94 95  1  0  0  0  0
 94 96  1  0  0  0  0
 94 97  1  0  0  0  0
 93 98  1  0  0  0  0
 95 98  1  0  0  0  0
 95 99  1  0  0  0  0
 95100  1  0  0  0  0
 93101  1  0  0  0  0
 93102  1  0  0  0  0
 98103  1  0  0  0  0
103104  1  0  0  0  0
103105  1  0  0  0  0
103106  1  0  0  0  0
104107  1  0  0  0  0
104108  1  0  0  0  0
104109  1  0  0  0  0
107110  1  0  0  0  0
107111  1  0  0  0  0
107112  1  0  0  0  0
110113  1  0  0  0  0
110114  1  0  0  0  0
110115  1  0  0  0  0
 98116  1  0  0  0  0
M  END
