 xtb: 6.7.1 (edcfbbe)
          10212513403D

116116  0     0  0            999 V2000
    3.4308    3.2312    8.8677 C   0  0  0  0  0  0  0  0  0  0  0  0
    7.2993    0.4222    8.2523 C   0  0  0  0  0  0  0  0  0  0  0  0
    2.6929    4.0055    8.0597 F   0  0  0  0  0  0  0  0  0  0  0  0
    3.0356    1.9705    8.6657 F   0  0  0  0  0  0  0  0  0  0  0  0
    3.1310    3.5555   10.1204 F   0  0  0  0  0  0  0  0  0  0  0  0
    6.5065    0.5065    7.1723 F   0  0  0  0  0  0  0  0  0  0  0  0
    8.5043    0.0424    7.8097 F   0  0  0  0  0  0  0  0  0  0  0  0
    6.8222   -0.5649    9.0065 F   0  0  0  0  0  0  0  0  0  0  0  0
    5.2654    3.4377    8.4966 S   0  0  0  0  0  0  0  0  0  0  0  0
    7.3390    2.0374    9.2422 S   0  0  0  0  0  0  0  0  0  0  0  0
    5.7980    2.2776    9.4282 N   0  0  0  0  0  0  0  0  0  0  0  0
    5.3583    3.1631    7.0841 O   0  0  0  0  0  0  0  0  0  0  0  0
    5.5889    4.7569    8.9293 O   0  0  0  0  0  0  0  0  0  0  0  0
    7.9578    3.0027    8.3719 O   0  0  0  0  0  0  0  0  0  0  0  0
    8.0472    1.6671   10.4210 O   0  0  0  0  0  0  0  0  0  0  0  0
    0.6463    5.6683    3.4121 C   0  0  0  0  0  0  0  0  0  0  0  0
    2.5010    6.8771   -0.3004 C   0  0  0  0  0  0  0  0  0  0  0  0
   -0.1923    6.0678    4.3698 F   0  0  0  0  0  0  0  0  0  0  0  0
    0.1314    6.0601    2.2475 F   0  0  0  0  0  0  0  0  0  0  0  0
    0.6523    4.3331    3.4371 F   0  0  0  0  0  0  0  0  0  0  0  0
    2.6246    6.1056   -1.3852 F   0  0  0  0  0  0  0  0  0  0  0  0
    1.2283    7.2398   -0.2024 F   0  0  0  0  0  0  0  0  0  0  0  0
    3.2285    7.9753   -0.5094 F   0  0  0  0  0  0  0  0  0  0  0  0
    2.3754    6.4011    3.7015 S   0  0  0  0  0  0  0  0  0  0  0  0
    3.1244    5.9924    1.2340 S   0  0  0  0  0  0  0  0  0  0  0  0
    2.7455    7.0651    2.3245 N   0  0  0  0  0  0  0  0  0  0  0  0
    2.1940    7.3537    4.7421 O   0  0  0  0  0  0  0  0  0  0  0  0
    3.1972    5.2524    3.9935 O   0  0  0  0  0  0  0  0  0  0  0  0
    4.5277    5.8425    0.9760 O   0  0  0  0  0  0  0  0  0  0  0  0
    2.3901    4.7640    1.3404 O   0  0  0  0  0  0  0  0  0  0  0  0
   11.1890    4.3678    7.6797 C   0  0  0  0  0  0  0  0  0  0  0  0
   11.3477    4.2938    6.3638 C   0  0  0  0  0  0  0  0  0  0  0  0
   11.9064    4.8696    8.3077 H   0  0  0  0  0  0  0  0  0  0  0  0
   10.3322    3.9336    8.1695 H   0  0  0  0  0  0  0  0  0  0  0  0
   10.3918    3.6331    5.4766 C   0  0  0  0  0  0  0  0  0  0  0  0
   12.1940    4.7699    5.8810 H   0  0  0  0  0  0  0  0  0  0  0  0
   10.1987    4.0964    4.1743 C   0  0  0  0  0  0  0  0  0  0  0  0
    9.2224    3.5474    3.3674 C   0  0  0  0  0  0  0  0  0  0  0  0
    8.4342    2.5010    3.8326 C   0  0  0  0  0  0  0  0  0  0  0  0
    9.6334    2.5517    5.9178 C   0  0  0  0  0  0  0  0  0  0  0  0
    8.6672    1.9973    5.1031 C   0  0  0  0  0  0  0  0  0  0  0  0
    9.7996    2.1447    6.9000 H   0  0  0  0  0  0  0  0  0  0  0  0
    8.0908    1.1593    5.4580 H   0  0  0  0  0  0  0  0  0  0  0  0
    9.0622    3.9280    2.3691 H   0  0  0  0  0  0  0  0  0  0  0  0
   10.8127    4.9048    3.7991 H   0  0  0  0  0  0  0  0  0  0  0  0
    7.3328    1.9508    2.9661 C   0  0  0  0  0  0  0  0  0  0  0  0
    6.2991    2.9723    2.8132 N   0  0  0  0  0  0  0  0  0  0  0  0
    6.9541    1.0141    3.4007 H   0  0  0  0  0  0  0  0  0  0  0  0
    7.7348    1.7294    1.9750 H   0  0  0  0  0  0  0  0  0  0  0  0
    5.3255    3.0233    3.8461 C   0  0  0  0  0  0  0  0  0  0  0  0
    5.5147    2.9350    1.5894 C   0  0  0  0  0  0  0  0  0  0  0  0
    4.1805    2.2354    1.9539 C   0  0  0  0  0  0  0  0  0  0  0  0
    6.0532    2.4212    0.7945 H   0  0  0  0  0  0  0  0  0  0  0  0
    5.3110    3.9611    1.2736 H   0  0  0  0  0  0  0  0  0  0  0  0
    4.2570    2.0257    3.4176 N   0  0  0  0  0  0  0  0  0  0  0  0
    4.0446    1.2851    1.4379 H   0  0  0  0  0  0  0  0  0  0  0  0
    3.3449    2.9037    1.7339 H   0  0  0  0  0  0  0  0  0  0  0  0
    4.8158    3.9928    3.8515 H   0  0  0  0  0  0  0  0  0  0  0  0
    5.7128    2.7866    4.8392 H   0  0  0  0  0  0  0  0  0  0  0  0
    2.9684    2.1491    4.1259 C   0  0  0  0  0  0  0  0  0  0  0  0
    3.0511    1.5666    5.5316 C   0  0  0  0  0  0  0  0  0  0  0  0
    2.2065    1.6335    3.5388 H   0  0  0  0  0  0  0  0  0  0  0  0
    2.7176    3.2098    4.1661 H   0  0  0  0  0  0  0  0  0  0  0  0
    3.3910    0.0742    5.5883 C   0  0  0  0  0  0  0  0  0  0  0  0
    2.0819    1.7245    6.0032 H   0  0  0  0  0  0  0  0  0  0  0  0
    3.7931    2.1175    6.1091 H   0  0  0  0  0  0  0  0  0  0  0  0
    2.4073   -0.8092    4.8265 C   0  0  0  0  0  0  0  0  0  0  0  0
    3.3849   -0.2143    6.6394 H   0  0  0  0  0  0  0  0  0  0  0  0
    4.4096   -0.1074    5.2319 H   0  0  0  0  0  0  0  0  0  0  0  0
    2.6205   -1.8580    5.0173 H   0  0  0  0  0  0  0  0  0  0  0  0
    2.4588   -0.6504    3.7507 H   0  0  0  0  0  0  0  0  0  0  0  0
    1.3907   -0.6061    5.1527 H   0  0  0  0  0  0  0  0  0  0  0  0
    4.6203    1.0888    3.6200 H   0  0  0  0  0  0  0  0  0  0  0  0
    5.0961   11.3125    1.4634 C   0  0  0  0  0  0  0  0  0  0  0  0
    5.2270    9.9927    1.5152 C   0  0  0  0  0  0  0  0  0  0  0  0
    5.1088   11.8409    0.5259 H   0  0  0  0  0  0  0  0  0  0  0  0
    4.9724   11.9196    2.3449 H   0  0  0  0  0  0  0  0  0  0  0  0
    5.2119    9.1770    2.7238 C   0  0  0  0  0  0  0  0  0  0  0  0
    5.3642    9.4331    0.5997 H   0  0  0  0  0  0  0  0  0  0  0  0
    5.7247    7.8808    2.6756 C   0  0  0  0  0  0  0  0  0  0  0  0
    5.6776    7.0545    3.7831 C   0  0  0  0  0  0  0  0  0  0  0  0
    5.1227    7.5009    4.9817 C   0  0  0  0  0  0  0  0  0  0  0  0
    4.6749    9.6269    3.9300 C   0  0  0  0  0  0  0  0  0  0  0  0
    4.6398    8.8059    5.0388 C   0  0  0  0  0  0  0  0  0  0  0  0
    4.2422   10.6130    3.9892 H   0  0  0  0  0  0  0  0  0  0  0  0
    4.1776    9.1583    5.9486 H   0  0  0  0  0  0  0  0  0  0  0  0
    6.0305    6.0376    3.6947 H   0  0  0  0  0  0  0  0  0  0  0  0
    6.1218    7.4991    1.7483 H   0  0  0  0  0  0  0  0  0  0  0  0
    5.0339    6.6025    6.1925 C   0  0  0  0  0  0  0  0  0  0  0  0
    6.2960    6.3994    6.8894 N   0  0  0  0  0  0  0  0  0  0  0  0
    4.6481    5.6241    5.9098 H   0  0  0  0  0  0  0  0  0  0  0  0
    4.3289    7.0294    6.9083 H   0  0  0  0  0  0  0  0  0  0  0  0
    7.0367    7.5355    7.1817 C   0  0  0  0  0  0  0  0  0  0  0  0
    7.2449    5.4486    6.3560 C   0  0  0  0  0  0  0  0  0  0  0  0
    8.3437    6.3032    5.6593 C   0  0  0  0  0  0  0  0  0  0  0  0
    6.7532    4.7622    5.6746 H   0  0  0  0  0  0  0  0  0  0  0  0
    7.6624    4.8511    7.1703 H   0  0  0  0  0  0  0  0  0  0  0  0
    7.9423    7.7026    5.9140 N   0  0  0  0  0  0  0  0  0  0  0  0
    8.3955    6.1034    4.5914 H   0  0  0  0  0  0  0  0  0  0  0  0
    9.3178    6.1196    6.1124 H   0  0  0  0  0  0  0  0  0  0  0  0
    7.7278    7.3657    8.0121 H   0  0  0  0  0  0  0  0  0  0  0  0
    6.4353    8.4290    7.3404 H   0  0  0  0  0  0  0  0  0  0  0  0
    9.0296    8.6804    6.0121 C   0  0  0  0  0  0  0  0  0  0  0  0
    9.8067    8.8253    4.7043 C   0  0  0  0  0  0  0  0  0  0  0  0
    9.7036    8.3583    6.8098 H   0  0  0  0  0  0  0  0  0  0  0  0
    8.5956    9.6417    6.2929 H   0  0  0  0  0  0  0  0  0  0  0  0
    8.9508    9.2559    3.5094 C   0  0  0  0  0  0  0  0  0  0  0  0
   10.3028    7.8825    4.4699 H   0  0  0  0  0  0  0  0  0  0  0  0
   10.5845    9.5730    4.8691 H   0  0  0  0  0  0  0  0  0  0  0  0
    8.2404   10.5878    3.7214 C   0  0  0  0  0  0  0  0  0  0  0  0
    8.2138    8.4886    3.2619 H   0  0  0  0  0  0  0  0  0  0  0  0
    9.6133    9.3474    2.6474 H   0  0  0  0  0  0  0  0  0  0  0  0
    7.7727   10.9050    2.7940 H   0  0  0  0  0  0  0  0  0  0  0  0
    8.9479   11.3544    4.0288 H   0  0  0  0  0  0  0  0  0  0  0  0
    7.4547   10.5135    4.4692 H   0  0  0  0  0  0  0  0  0  0  0  0
    7.2780    7.9722    5.1678 H   0  0  0  0  0  0  0  0  0  0  0  0
  1  3  1  0  0  0  0
  1  4  1  0  0  0  0
  1  5  1  0  0  0  0
  2  6  1  0  0  0  0
  2  7  1  0  0  0  0
  2  8  1  0  0  0  0
  1  9  1  0  0  0  0
  2 10  1  0  0  0  0
  9 11  1  0  0  0  0
 10 11  1  0  0  0  0
  9 12  2  0  0  0  0
  9 13  2  0  0  0  0
 10 14  2  0  0  0  0
 10 15  2  0  0  0  0
 16 18  1  0  0  0  0
 16 19  1  0  0  0  0
 16 20  1  0  0  0  0
 17 21  1  0  0  0  0
 17 22  1  0  0  0  0
 17 23  1  0  0  0  0
 16 24  1  0  0  0  0
 17 25  1  0  0  0  0
 24 26  1  0  0  0  0
 25 26  1  0  0  0  0
 24 27  2  0  0  0  0
 24 28  2  0  0  0  0
 25 29  2  0  0  0  0
 25 30  2  0  0  0  0
 31 32  2  0  0  0  0
 31 33  1  0  0  0  0
 31 34  1  0  0  0  0
 32 35  1  0  0  0  0
 32 36  1  0  0  0  0
 35 37  4  0  0  0  0
 37 38  4  0  0  0  0
 38 39  4  0  0  0  0
 35 40  4  0  0  0  0
 39 41  4  0  0  0  0
 40 41  4  0  0  0  0
 40 42  1  0  0  0  0
 41 43  1  0  0  0  0
 38 44  1  0  0  0  0
 37 45  1  0  0  0  0
 39 46  1  0  0  0  0
 46 47  1  0  0  0  0
 46 48  1  0  0  0  0
 46 49  1  0  0  0  0
 47 50  1  0  0  0  0
 47 51  1  0  0  0  0
 51 52  1  0  0  0  0
 51 53  1  0  0  0  0
 51 54  1  0  0  0  0
 50 55  1  0  0  0  0
 52 55  1  0  0  0  0
 52 56  1  0  0  0  0
 52 57  1  0  0  0  0
 50 58  1  0  0  0  0
 50 59  1  0  0  0  0
 55 60  1  0  0  0  0
 60 61  1  0  0  0  0
 60 62  1  0  0  0  0
 60 63  1  0  0  0  0
 61 64  1  0  0  0  0
 61 65  1  0  0  0  0
 61 66  1  0  0  0  0
 64 67  1  0  0  0  0
 64 68  1  0  0  0  0
 64 69  1  0  0  0  0
 67 70  1  0  0  0  0
 67 71  1  0  0  0  0
 67 72  1  0  0  0  0
 55 73  1  0  0  0  0
 74 75  2  0  0  0  0
 74 76  1  0  0  0  0
 74 77  1  0  0  0  0
 75 78  1  0  0  0  0
 75 79  1  0  0  0  0
 78 80  4  0  0  0  0
 80 81  4  0  0  0  0
 81 82  4  0  0  0  0
 78 83  4  0  0  0  0
 82 84  4  0  0  0  0
 83 84  4  0  0  0  0
 83 85  1  0  0  0  0
 84 86  1  0  0  0  0
 81 87  1  0  0  0  0
 80 88  1  0  0  0  0
 82 89  1  0  0  0  0
 89 90  1  0  0  0  0
 89 91  1  0  0  0  0
 89 92  1  0  0  0  0
 90 93  1  0  0  0  0
 90 94  1  0  0  0  0
 94 95  1  0  0  0  0
 94 96  1  0  0  0  0
 94 97  1  0  0  0  0
 93 98  1  0  0  0  0
 95 98  1  0  0  0  0
 95 99  1  0  0  0  0
 95100  1  0  0  0  0
 93101  1  0  0  0  0
 93102  1  0  0  0  0
 98103  1  0  0  0  0
103104  1  0  0  0  0
103105  1  0  0  0  0
103106  1  0  0  0  0
104107  1  0  0  0  0
104108  1  0  0  0  0
104109  1  0  0  0  0
107110  1  0  0  0  0
107111  1  0  0  0  0
107112  1  0  0  0  0
110113  1  0  0  0  0
110114  1  0  0  0  0
110115  1  0  0  0  0
 98116  1  0  0  0  0
M  END
