 xtb: 6.7.1 (edcfbbe)
          10212513423D

116116  0     0  0            999 V2000
   11.9662    4.6935    4.9315 C   0  0  0  0  0  0  0  0  0  0  0  0
    8.8007    8.1068    5.3161 C   0  0  0  0  0  0  0  0  0  0  0  0
   12.6637    5.3984    5.8014 F   0  0  0  0  0  0  0  0  0  0  0  0
   11.3582    3.6820    5.5760 F   0  0  0  0  0  0  0  0  0  0  0  0
   12.8339    4.1324    4.0805 F   0  0  0  0  0  0  0  0  0  0  0  0
    9.8437    8.9179    5.3443 F   0  0  0  0  0  0  0  0  0  0  0  0
    8.3613    7.9913    4.0620 F   0  0  0  0  0  0  0  0  0  0  0  0
    7.8228    8.6781    6.0232 F   0  0  0  0  0  0  0  0  0  0  0  0
   10.6326    5.6121    3.9492 S   0  0  0  0  0  0  0  0  0  0  0  0
    9.1669    6.4041    6.0399 S   0  0  0  0  0  0  0  0  0  0  0  0
    9.3202    5.4323    4.8008 N   0  0  0  0  0  0  0  0  0  0  0  0
   11.0398    6.9591    3.7741 O   0  0  0  0  0  0  0  0  0  0  0  0
   10.5031    4.7598    2.7967 O   0  0  0  0  0  0  0  0  0  0  0  0
    7.9600    6.0531    6.7293 O   0  0  0  0  0  0  0  0  0  0  0  0
   10.3699    6.5108    6.7973 O   0  0  0  0  0  0  0  0  0  0  0  0
    1.3667    4.8346    3.2665 C   0  0  0  0  0  0  0  0  0  0  0  0
    3.8252    7.3193    5.6206 C   0  0  0  0  0  0  0  0  0  0  0  0
    0.0971    5.1628    3.4286 F   0  0  0  0  0  0  0  0  0  0  0  0
    2.0840    5.9463    3.0842 F   0  0  0  0  0  0  0  0  0  0  0  0
    1.4602    4.1220    2.1377 F   0  0  0  0  0  0  0  0  0  0  0  0
    3.9813    7.4546    4.3125 F   0  0  0  0  0  0  0  0  0  0  0  0
    3.5714    8.5175    6.1435 F   0  0  0  0  0  0  0  0  0  0  0  0
    4.9861    6.8907    6.1349 F   0  0  0  0  0  0  0  0  0  0  0  0
    2.0457    3.8298    4.7149 S   0  0  0  0  0  0  0  0  0  0  0  0
    2.5314    6.0506    6.1319 S   0  0  0  0  0  0  0  0  0  0  0  0
    3.1066    4.7748    5.4157 N   0  0  0  0  0  0  0  0  0  0  0  0
    0.9325    3.5158    5.5475 O   0  0  0  0  0  0  0  0  0  0  0  0
    2.7515    2.7331    4.1175 O   0  0  0  0  0  0  0  0  0  0  0  0
    1.2504    6.4676    5.6844 O   0  0  0  0  0  0  0  0  0  0  0  0
    2.7747    5.9960    7.5600 O   0  0  0  0  0  0  0  0  0  0  0  0
    7.1464    5.5714   -1.9428 C   0  0  0  0  0  0  0  0  0  0  0  0
    6.1088    5.2386   -1.1825 C   0  0  0  0  0  0  0  0  0  0  0  0
    7.0377    5.7210   -3.0032 H   0  0  0  0  0  0  0  0  0  0  0  0
    8.1391    5.6977   -1.5465 H   0  0  0  0  0  0  0  0  0  0  0  0
    6.1278    5.0102    0.2574 C   0  0  0  0  0  0  0  0  0  0  0  0
    5.1379    5.1131   -1.6382 H   0  0  0  0  0  0  0  0  0  0  0  0
    5.0164    4.4304    0.8726 C   0  0  0  0  0  0  0  0  0  0  0  0
    4.9893    4.1925    2.2348 C   0  0  0  0  0  0  0  0  0  0  0  0
    6.0734    4.5407    3.0343 C   0  0  0  0  0  0  0  0  0  0  0  0
    7.2098    5.3660    1.0650 C   0  0  0  0  0  0  0  0  0  0  0  0
    7.1817    5.1373    2.4286 C   0  0  0  0  0  0  0  0  0  0  0  0
    8.0775    5.8433    0.6396 H   0  0  0  0  0  0  0  0  0  0  0  0
    8.0167    5.4552    3.0359 H   0  0  0  0  0  0  0  0  0  0  0  0
    4.1177    3.7417    2.6821 H   0  0  0  0  0  0  0  0  0  0  0  0
    4.1562    4.1638    0.2751 H   0  0  0  0  0  0  0  0  0  0  0  0
    6.0659    4.2501    4.5176 C   0  0  0  0  0  0  0  0  0  0  0  0
    6.6085    2.9387    4.8898 N   0  0  0  0  0  0  0  0  0  0  0  0
    5.0379    4.2865    4.8847 H   0  0  0  0  0  0  0  0  0  0  0  0
    6.6657    4.9915    5.0480 H   0  0  0  0  0  0  0  0  0  0  0  0
    7.9873    2.7685    4.6191 C   0  0  0  0  0  0  0  0  0  0  0  0
    5.9816    1.7983    4.2491 C   0  0  0  0  0  0  0  0  0  0  0  0
    6.8533    1.4876    2.9998 C   0  0  0  0  0  0  0  0  0  0  0  0
    4.9389    2.0045    4.0132 H   0  0  0  0  0  0  0  0  0  0  0  0
    6.0181    0.9512    4.9419 H   0  0  0  0  0  0  0  0  0  0  0  0
    8.0481    2.3548    3.1516 N   0  0  0  0  0  0  0  0  0  0  0  0
    6.3304    1.7173    2.0742 H   0  0  0  0  0  0  0  0  0  0  0  0
    7.1640    0.4440    2.9946 H   0  0  0  0  0  0  0  0  0  0  0  0
    8.3867    1.9292    5.1989 H   0  0  0  0  0  0  0  0  0  0  0  0
    8.5714    3.6746    4.7930 H   0  0  0  0  0  0  0  0  0  0  0  0
    9.3490    1.8001    2.7340 C   0  0  0  0  0  0  0  0  0  0  0  0
    9.3303    1.1927    1.3322 C   0  0  0  0  0  0  0  0  0  0  0  0
    9.6379    1.0320    3.4576 H   0  0  0  0  0  0  0  0  0  0  0  0
   10.0682    2.6221    2.7767 H   0  0  0  0  0  0  0  0  0  0  0  0
    8.9614    2.1696    0.2140 C   0  0  0  0  0  0  0  0  0  0  0  0
    8.6492    0.3396    1.3044 H   0  0  0  0  0  0  0  0  0  0  0  0
   10.3345    0.8109    1.1403 H   0  0  0  0  0  0  0  0  0  0  0  0
   10.0360    3.2215   -0.0324 C   0  0  0  0  0  0  0  0  0  0  0  0
    8.0098    2.6600    0.4297 H   0  0  0  0  0  0  0  0  0  0  0  0
    8.8226    1.5870   -0.7001 H   0  0  0  0  0  0  0  0  0  0  0  0
   10.1661    3.8762    0.8246 H   0  0  0  0  0  0  0  0  0  0  0  0
    9.7614    3.8256   -0.8917 H   0  0  0  0  0  0  0  0  0  0  0  0
   10.9899    2.7421   -0.2470 H   0  0  0  0  0  0  0  0  0  0  0  0
    7.8876    3.2405    2.6334 H   0  0  0  0  0  0  0  0  0  0  0  0
   10.1569   10.4843   13.4720 C   0  0  0  0  0  0  0  0  0  0  0  0
   10.3070    9.7786   12.3575 C   0  0  0  0  0  0  0  0  0  0  0  0
   11.0043   10.9057   13.9844 H   0  0  0  0  0  0  0  0  0  0  0  0
    9.1964   10.6694   13.9218 H   0  0  0  0  0  0  0  0  0  0  0  0
    9.2519    9.1466   11.5746 C   0  0  0  0  0  0  0  0  0  0  0  0
   11.3055    9.6219   11.9684 H   0  0  0  0  0  0  0  0  0  0  0  0
    7.8946    9.3497   11.8204 C   0  0  0  0  0  0  0  0  0  0  0  0
    6.9344    8.7118   11.0573 C   0  0  0  0  0  0  0  0  0  0  0  0
    7.2982    7.8563   10.0265 C   0  0  0  0  0  0  0  0  0  0  0  0
    9.6081    8.2949   10.5250 C   0  0  0  0  0  0  0  0  0  0  0  0
    8.6501    7.6558    9.7666 C   0  0  0  0  0  0  0  0  0  0  0  0
   10.6532    8.1337   10.3036 H   0  0  0  0  0  0  0  0  0  0  0  0
    8.9400    7.0035    8.9572 H   0  0  0  0  0  0  0  0  0  0  0  0
    5.8877    8.8940   11.2607 H   0  0  0  0  0  0  0  0  0  0  0  0
    7.5833   10.0171   12.6092 H   0  0  0  0  0  0  0  0  0  0  0  0
    6.2816    7.1071    9.2081 C   0  0  0  0  0  0  0  0  0  0  0  0
    6.3443    5.6986    9.5893 N   0  0  0  0  0  0  0  0  0  0  0  0
    6.5586    7.1720    8.1573 H   0  0  0  0  0  0  0  0  0  0  0  0
    5.2766    7.5279    9.3424 H   0  0  0  0  0  0  0  0  0  0  0  0
    6.0220    4.7312    8.6208 C   0  0  0  0  0  0  0  0  0  0  0  0
    5.5652    5.3307   10.7445 C   0  0  0  0  0  0  0  0  0  0  0  0
    4.2007    4.8901   10.1636 C   0  0  0  0  0  0  0  0  0  0  0  0
    5.4820    6.1604   11.4424 H   0  0  0  0  0  0  0  0  0  0  0  0
    6.0507    4.4924   11.2537 H   0  0  0  0  0  0  0  0  0  0  0  0
    4.5233    4.3948    8.8010 N   0  0  0  0  0  0  0  0  0  0  0  0
    3.5227    5.7383   10.0752 H   0  0  0  0  0  0  0  0  0  0  0  0
    3.7316    4.1120   10.7597 H   0  0  0  0  0  0  0  0  0  0  0  0
    6.5570    3.8006    8.8408 H   0  0  0  0  0  0  0  0  0  0  0  0
    6.2490    5.0598    7.6095 H   0  0  0  0  0  0  0  0  0  0  0  0
    4.2567    2.9625    8.5614 C   0  0  0  0  0  0  0  0  0  0  0  0
    2.8161    2.6517    8.1651 C   0  0  0  0  0  0  0  0  0  0  0  0
    4.5418    2.4132    9.4639 H   0  0  0  0  0  0  0  0  0  0  0  0
    4.9018    2.6473    7.7373 H   0  0  0  0  0  0  0  0  0  0  0  0
    1.7411    3.0972    9.1551 C   0  0  0  0  0  0  0  0  0  0  0  0
    2.7434    1.5700    8.0306 H   0  0  0  0  0  0  0  0  0  0  0  0
    2.6070    3.1090    7.1972 H   0  0  0  0  0  0  0  0  0  0  0  0
    0.3710    2.6108    8.6955 C   0  0  0  0  0  0  0  0  0  0  0  0
    1.7216    4.1860    9.2043 H   0  0  0  0  0  0  0  0  0  0  0  0
    1.9543    2.6982   10.1518 H   0  0  0  0  0  0  0  0  0  0  0  0
    0.1846    2.9542    7.6812 H   0  0  0  0  0  0  0  0  0  0  0  0
   -0.4087    2.9967    9.3472 H   0  0  0  0  0  0  0  0  0  0  0  0
    0.3246    1.5240    8.7072 H   0  0  0  0  0  0  0  0  0  0  0  0
    3.9409    4.9567    8.1353 H   0  0  0  0  0  0  0  0  0  0  0  0
  1  3  1  0  0  0  0
  1  4  1  0  0  0  0
  1  5  1  0  0  0  0
  2  6  1  0  0  0  0
  2  7  1  0  0  0  0
  2  8  1  0  0  0  0
  1  9  1  0  0  0  0
  2 10  1  0  0  0  0
  9 11  1  0  0  0  0
 10 11  1  0  0  0  0
  9 12  2  0  0  0  0
  9 13  2  0  0  0  0
 10 14  2  0  0  0  0
 10 15  2  0  0  0  0
 16 18  1  0  0  0  0
 16 19  1  0  0  0  0
 16 20  1  0  0  0  0
 17 21  1  0  0  0  0
 17 22  1  0  0  0  0
 17 23  1  0  0  0  0
 16 24  1  0  0  0  0
 17 25  1  0  0  0  0
 24 26  1  0  0  0  0
 25 26  1  0  0  0  0
 24 27  2  0  0  0  0
 24 28  2  0  0  0  0
 25 29  2  0  0  0  0
 25 30  2  0  0  0  0
 31 32  2  0  0  0  0
 31 33  1  0  0  0  0
 31 34  1  0  0  0  0
 32 35  1  0  0  0  0
 32 36  1  0  0  0  0
 35 37  4  0  0  0  0
 37 38  4  0  0  0  0
 38 39  4  0  0  0  0
 35 40  4  0  0  0  0
 39 41  4  0  0  0  0
 40 41  4  0  0  0  0
 40 42  1  0  0  0  0
 41 43  1  0  0  0  0
 38 44  1  0  0  0  0
 37 45  1  0  0  0  0
 39 46  1  0  0  0  0
 46 47  1  0  0  0  0
 46 48  1  0  0  0  0
 46 49  1  0  0  0  0
 47 50  1  0  0  0  0
 47 51  1  0  0  0  0
 51 52  1  0  0  0  0
 51 53  1  0  0  0  0
 51 54  1  0  0  0  0
 50 55  1  0  0  0  0
 52 55  1  0  0  0  0
 52 56  1  0  0  0  0
 52 57  1  0  0  0  0
 50 58  1  0  0  0  0
 50 59  1  0  0  0  0
 55 60  1  0  0  0  0
 60 61  1  0  0  0  0
 60 62  1  0  0  0  0
 60 63  1  0  0  0  0
 61 64  1  0  0  0  0
 61 65  1  0  0  0  0
 61 66  1  0  0  0  0
 64 67  1  0  0  0  0
 64 68  1  0  0  0  0
 64 69  1  0  0  0  0
 67 70  1  0  0  0  0
 67 71  1  0  0  0  0
 67 72  1  0  0  0  0
 55 73  1  0  0  0  0
 74 75  2  0  0  0  0
 74 76  1  0  0  0  0
 74 77  1  0  0  0  0
 75 78  1  0  0  0  0
 75 79  1  0  0  0  0
 78 80  4  0  0  0  0
 80 81  4  0  0  0  0
 81 82  4  0  0  0  0
 78 83  4  0  0  0  0
 82 84  4  0  0  0  0
 83 84  4  0  0  0  0
 83 85  1  0  0  0  0
 84 86  1  0  0  0  0
 81 87  1  0  0  0  0
 80 88  1  0  0  0  0
 82 89  1  0  0  0  0
 89 90  1  0  0  0  0
 89 91  1  0  0  0  0
 89 92  1  0  0  0  0
 90 93  1  0  0  0  0
 90 94  1  0  0  0  0
 94 95  1  0  0  0  0
 94 96  1  0  0  0  0
 94 97  1  0  0  0  0
 93 98  1  0  0  0  0
 95 98  1  0  0  0  0
 95 99  1  0  0  0  0
 95100  1  0  0  0  0
 93101  1  0  0  0  0
 93102  1  0  0  0  0
 98103  1  0  0  0  0
103104  1  0  0  0  0
103105  1  0  0  0  0
103106  1  0  0  0  0
104107  1  0  0  0  0
104108  1  0  0  0  0
104109  1  0  0  0  0
107110  1  0  0  0  0
107111  1  0  0  0  0
107112  1  0  0  0  0
110113  1  0  0  0  0
110114  1  0  0  0  0
110115  1  0  0  0  0
 98116  1  0  0  0  0
M  END
