 xtb: 6.7.1 (edcfbbe)
          10212513323D

116116  0     0  0            999 V2000
    2.6530    0.7726    1.5795 C   0  0  0  0  0  0  0  0  0  0  0  0
    5.5596    3.9138    3.9012 C   0  0  0  0  0  0  0  0  0  0  0  0
    2.4362    1.6801    0.6295 F   0  0  0  0  0  0  0  0  0  0  0  0
    3.0498   -0.3517    0.9757 F   0  0  0  0  0  0  0  0  0  0  0  0
    1.4947    0.5205    2.1803 F   0  0  0  0  0  0  0  0  0  0  0  0
    5.7288    4.3629    2.6538 F   0  0  0  0  0  0  0  0  0  0  0  0
    6.0950    4.8579    4.6956 F   0  0  0  0  0  0  0  0  0  0  0  0
    6.3309    2.8370    4.0526 F   0  0  0  0  0  0  0  0  0  0  0  0
    3.9415    1.3873    2.7996 S   0  0  0  0  0  0  0  0  0  0  0  0
    3.7581    3.5611    4.3573 S   0  0  0  0  0  0  0  0  0  0  0  0
    3.2137    2.7673    3.1604 N   0  0  0  0  0  0  0  0  0  0  0  0
    4.0226    0.4317    3.8473 O   0  0  0  0  0  0  0  0  0  0  0  0
    5.1190    1.6189    2.0206 O   0  0  0  0  0  0  0  0  0  0  0  0
    3.1799    4.8614    4.4343 O   0  0  0  0  0  0  0  0  0  0  0  0
    3.9770    2.8090    5.5798 O   0  0  0  0  0  0  0  0  0  0  0  0
    5.5827    4.3743    8.9738 C   0  0  0  0  0  0  0  0  0  0  0  0
    2.1985    1.1510    6.5177 C   0  0  0  0  0  0  0  0  0  0  0  0
    4.6667    5.1741    9.5486 F   0  0  0  0  0  0  0  0  0  0  0  0
    5.9763    3.4906    9.8944 F   0  0  0  0  0  0  0  0  0  0  0  0
    6.6649    5.1720    8.7508 F   0  0  0  0  0  0  0  0  0  0  0  0
    1.2511    0.3760    7.0641 F   0  0  0  0  0  0  0  0  0  0  0  0
    1.8039    1.3895    5.2691 F   0  0  0  0  0  0  0  0  0  0  0  0
    3.3179    0.4464    6.5352 F   0  0  0  0  0  0  0  0  0  0  0  0
    4.8786    3.6791    7.3097 S   0  0  0  0  0  0  0  0  0  0  0  0
    2.3502    2.7300    7.5364 S   0  0  0  0  0  0  0  0  0  0  0  0
    3.8382    2.8026    8.0646 N   0  0  0  0  0  0  0  0  0  0  0  0
    4.4844    4.9708    6.8052 O   0  0  0  0  0  0  0  0  0  0  0  0
    6.1292    3.1444    6.8092 O   0  0  0  0  0  0  0  0  0  0  0  0
    1.4824    2.5040    8.6517 O   0  0  0  0  0  0  0  0  0  0  0  0
    1.9553    3.8453    6.7123 O   0  0  0  0  0  0  0  0  0  0  0  0
   12.3060   10.1322    0.2413 C   0  0  0  0  0  0  0  0  0  0  0  0
   11.5029   10.1490    1.2988 C   0  0  0  0  0  0  0  0  0  0  0  0
   12.7288   11.0398   -0.1536 H   0  0  0  0  0  0  0  0  0  0  0  0
   12.5647    9.2278   -0.2804 H   0  0  0  0  0  0  0  0  0  0  0  0
   10.8565    8.9992    1.9187 C   0  0  0  0  0  0  0  0  0  0  0  0
   11.2655   11.0989    1.7634 H   0  0  0  0  0  0  0  0  0  0  0  0
   11.1281    7.6807    1.5477 C   0  0  0  0  0  0  0  0  0  0  0  0
   10.4671    6.6280    2.1453 C   0  0  0  0  0  0  0  0  0  0  0  0
    9.5118    6.8544    3.1293 C   0  0  0  0  0  0  0  0  0  0  0  0
    9.9151    9.2153    2.9250 C   0  0  0  0  0  0  0  0  0  0  0  0
    9.2503    8.1607    3.5192 C   0  0  0  0  0  0  0  0  0  0  0  0
    9.6915   10.2260    3.2337 H   0  0  0  0  0  0  0  0  0  0  0  0
    8.5073    8.3581    4.2791 H   0  0  0  0  0  0  0  0  0  0  0  0
   10.6828    5.6131    1.8468 H   0  0  0  0  0  0  0  0  0  0  0  0
   11.8612    7.4771    0.7831 H   0  0  0  0  0  0  0  0  0  0  0  0
    8.7747    5.7000    3.7517 C   0  0  0  0  0  0  0  0  0  0  0  0
    9.7044    4.8744    4.5237 N   0  0  0  0  0  0  0  0  0  0  0  0
    8.3576    5.0771    2.9585 H   0  0  0  0  0  0  0  0  0  0  0  0
    7.9560    6.0916    4.3638 H   0  0  0  0  0  0  0  0  0  0  0  0
    9.3043    3.5487    4.8454 C   0  0  0  0  0  0  0  0  0  0  0  0
   10.0742    5.4508    5.7983 C   0  0  0  0  0  0  0  0  0  0  0  0
    9.0029    4.9225    6.7688 C   0  0  0  0  0  0  0  0  0  0  0  0
   10.1043    6.5362    5.7414 H   0  0  0  0  0  0  0  0  0  0  0  0
   11.0663    5.0845    6.0800 H   0  0  0  0  0  0  0  0  0  0  0  0
    8.7288    3.5535    6.2689 N   0  0  0  0  0  0  0  0  0  0  0  0
    8.0914    5.5147    6.7044 H   0  0  0  0  0  0  0  0  0  0  0  0
    9.3357    4.9025    7.8027 H   0  0  0  0  0  0  0  0  0  0  0  0
   10.1943    2.9095    4.8825 H   0  0  0  0  0  0  0  0  0  0  0  0
    8.5933    3.1309    4.1366 H   0  0  0  0  0  0  0  0  0  0  0  0
    9.3357    2.4887    7.0969 C   0  0  0  0  0  0  0  0  0  0  0  0
    8.6231    2.2985    8.4316 C   0  0  0  0  0  0  0  0  0  0  0  0
   10.3895    2.7407    7.2475 H   0  0  0  0  0  0  0  0  0  0  0  0
    9.2704    1.5540    6.5357 H   0  0  0  0  0  0  0  0  0  0  0  0
    9.2617    1.1850    9.2655 C   0  0  0  0  0  0  0  0  0  0  0  0
    7.5798    2.0532    8.2313 H   0  0  0  0  0  0  0  0  0  0  0  0
    8.6396    3.2211    9.0129 H   0  0  0  0  0  0  0  0  0  0  0  0
   10.6266    1.5678    9.8304 C   0  0  0  0  0  0  0  0  0  0  0  0
    9.3528    0.2803    8.6618 H   0  0  0  0  0  0  0  0  0  0  0  0
    8.5904    0.9624   10.0947 H   0  0  0  0  0  0  0  0  0  0  0  0
   10.9970    0.7782   10.4792 H   0  0  0  0  0  0  0  0  0  0  0  0
   10.5517    2.4803   10.4181 H   0  0  0  0  0  0  0  0  0  0  0  0
   11.3604    1.7211    9.0431 H   0  0  0  0  0  0  0  0  0  0  0  0
    7.6935    3.3860    6.2917 H   0  0  0  0  0  0  0  0  0  0  0  0
    8.0926   10.4231    0.3147 C   0  0  0  0  0  0  0  0  0  0  0  0
    7.3455   10.8648    1.3188 C   0  0  0  0  0  0  0  0  0  0  0  0
    8.6062   11.0990   -0.3475 H   0  0  0  0  0  0  0  0  0  0  0  0
    8.2351    9.3734    0.1224 H   0  0  0  0  0  0  0  0  0  0  0  0
    6.6320   10.0294    2.2790 C   0  0  0  0  0  0  0  0  0  0  0  0
    7.2632   11.9318    1.4914 H   0  0  0  0  0  0  0  0  0  0  0  0
    6.2979    8.7009    2.0130 C   0  0  0  0  0  0  0  0  0  0  0  0
    5.6477    7.9322    2.9581 C   0  0  0  0  0  0  0  0  0  0  0  0
    5.3279    8.4577    4.2059 C   0  0  0  0  0  0  0  0  0  0  0  0
    6.2674   10.5636    3.5167 C   0  0  0  0  0  0  0  0  0  0  0  0
    5.6380    9.7874    4.4702 C   0  0  0  0  0  0  0  0  0  0  0  0
    6.5015   11.5966    3.7376 H   0  0  0  0  0  0  0  0  0  0  0  0
    5.3766   10.2057    5.4314 H   0  0  0  0  0  0  0  0  0  0  0  0
    5.3840    6.9098    2.7302 H   0  0  0  0  0  0  0  0  0  0  0  0
    6.5341    8.2702    1.0520 H   0  0  0  0  0  0  0  0  0  0  0  0
    4.7153    7.5771    5.2597 C   0  0  0  0  0  0  0  0  0  0  0  0
    3.7288    8.2966    6.0655 N   0  0  0  0  0  0  0  0  0  0  0  0
    5.5065    7.2456    5.9382 H   0  0  0  0  0  0  0  0  0  0  0  0
    4.2900    6.6773    4.8061 H   0  0  0  0  0  0  0  0  0  0  0  0
    3.4065    7.6597    7.2979 C   0  0  0  0  0  0  0  0  0  0  0  0
    2.4396    8.4148    5.4068 C   0  0  0  0  0  0  0  0  0  0  0  0
    1.6713    7.1215    5.7645 C   0  0  0  0  0  0  0  0  0  0  0  0
    2.5695    8.5437    4.3350 H   0  0  0  0  0  0  0  0  0  0  0  0
    1.9282    9.2962    5.8074 H   0  0  0  0  0  0  0  0  0  0  0  0
    2.3482    6.6284    6.9896 N   0  0  0  0  0  0  0  0  0  0  0  0
    1.7769    6.3650    4.9879 H   0  0  0  0  0  0  0  0  0  0  0  0
    0.6166    7.3055    5.9588 H   0  0  0  0  0  0  0  0  0  0  0  0
    2.9670    8.3955    7.9777 H   0  0  0  0  0  0  0  0  0  0  0  0
    4.2645    7.1756    7.7592 H   0  0  0  0  0  0  0  0  0  0  0  0
    1.4722    6.2927    8.1300 C   0  0  0  0  0  0  0  0  0  0  0  0
    0.6497    7.4748    8.6625 C   0  0  0  0  0  0  0  0  0  0  0  0
    2.1145    5.8940    8.9180 H   0  0  0  0  0  0  0  0  0  0  0  0
    0.8351    5.4707    7.8030 H   0  0  0  0  0  0  0  0  0  0  0  0
    1.0639    7.8898   10.0766 C   0  0  0  0  0  0  0  0  0  0  0  0
   -0.4058    7.2007    8.6851 H   0  0  0  0  0  0  0  0  0  0  0  0
    0.7397    8.3375    8.0001 H   0  0  0  0  0  0  0  0  0  0  0  0
    0.2563    9.0865   10.5662 C   0  0  0  0  0  0  0  0  0  0  0  0
    2.1273    8.1363   10.0990 H   0  0  0  0  0  0  0  0  0  0  0  0
    0.9088    7.0474   10.7514 H   0  0  0  0  0  0  0  0  0  0  0  0
    0.5570    9.3613   11.5735 H   0  0  0  0  0  0  0  0  0  0  0  0
   -0.8049    8.8513   10.5792 H   0  0  0  0  0  0  0  0  0  0  0  0
    0.4081    9.9472    9.9179 H   0  0  0  0  0  0  0  0  0  0  0  0
    2.8474    5.7475    6.7373 H   0  0  0  0  0  0  0  0  0  0  0  0
  1  3  1  0  0  0  0
  1  4  1  0  0  0  0
  1  5  1  0  0  0  0
  2  6  1  0  0  0  0
  2  7  1  0  0  0  0
  2  8  1  0  0  0  0
  1  9  1  0  0  0  0
  2 10  1  0  0  0  0
  9 11  1  0  0  0  0
 10 11  1  0  0  0  0
  9 12  2  0  0  0  0
  9 13  2  0  0  0  0
 10 14  2  0  0  0  0
 10 15  2  0  0  0  0
 16 18  1  0  0  0  0
 16 19  1  0  0  0  0
 16 20  1  0  0  0  0
 17 21  1  0  0  0  0
 17 22  1  0  0  0  0
 17 23  1  0  0  0  0
 16 24  1  0  0  0  0
 17 25  1  0  0  0  0
 24 26  1  0  0  0  0
 25 26  1  0  0  0  0
 24 27  2  0  0  0  0
 24 28  2  0  0  0  0
 25 29  2  0  0  0  0
 25 30  2  0  0  0  0
 31 32  2  0  0  0  0
 31 33  1  0  0  0  0
 31 34  1  0  0  0  0
 32 35  1  0  0  0  0
 32 36  1  0  0  0  0
 35 37  4  0  0  0  0
 37 38  4  0  0  0  0
 38 39  4  0  0  0  0
 35 40  4  0  0  0  0
 39 41  4  0  0  0  0
 40 41  4  0  0  0  0
 40 42  1  0  0  0  0
 41 43  1  0  0  0  0
 38 44  1  0  0  0  0
 37 45  1  0  0  0  0
 39 46  1  0  0  0  0
 46 47  1  0  0  0  0
 46 48  1  0  0  0  0
 46 49  1  0  0  0  0
 47 50  1  0  0  0  0
 47 51  1  0  0  0  0
 51 52  1  0  0  0  0
 51 53  1  0  0  0  0
 51 54  1  0  0  0  0
 50 55  1  0  0  0  0
 52 55  1  0  0  0  0
 52 56  1  0  0  0  0
 52 57  1  0  0  0  0
 50 58  1  0  0  0  0
 50 59  1  0  0  0  0
 55 60  1  0  0  0  0
 60 61  1  0  0  0  0
 60 62  1  0  0  0  0
 60 63  1  0  0  0  0
 61 64  1  0  0  0  0
 61 65  1  0  0  0  0
 61 66  1  0  0  0  0
 64 67  1  0  0  0  0
 64 68  1  0  0  0  0
 64 69  1  0  0  0  0
 67 70  1  0  0  0  0
 67 71  1  0  0  0  0
 67 72  1  0  0  0  0
 55 73  1  0  0  0  0
 74 75  2  0  0  0  0
 74 76  1  0  0  0  0
 74 77  1  0  0  0  0
 75 78  1  0  0  0  0
 75 79  1  0  0  0  0
 78 80  4  0  0  0  0
 80 81  4  0  0  0  0
 81 82  4  0  0  0  0
 78 83  4  0  0  0  0
 82 84  4  0  0  0  0
 83 84  4  0  0  0  0
 83 85  1  0  0  0  0
 84 86  1  0  0  0  0
 81 87  1  0  0  0  0
 80 88  1  0  0  0  0
 82 89  1  0  0  0  0
 89 90  1  0  0  0  0
 89 91  1  0  0  0  0
 89 92  1  0  0  0  0
 90 93  1  0  0  0  0
 90 94  1  0  0  0  0
 94 95  1  0  0  0  0
 94 96  1  0  0  0  0
 94 97  1  0  0  0  0
 93 98  1  0  0  0  0
 95 98  1  0  0  0  0
 95 99  1  0  0  0  0
 95100  1  0  0  0  0
 93101  1  0  0  0  0
 93102  1  0  0  0  0
 98103  1  0  0  0  0
103104  1  0  0  0  0
103105  1  0  0  0  0
103106  1  0  0  0  0
104107  1  0  0  0  0
104108  1  0  0  0  0
104109  1  0  0  0  0
107110  1  0  0  0  0
107111  1  0  0  0  0
107112  1  0  0  0  0
110113  1  0  0  0  0
110114  1  0  0  0  0
110115  1  0  0  0  0
 98116  1  0  0  0  0
M  END
