 xtb: 6.7.1 (edcfbbe)
          10212513303D

116116  0     0  0            999 V2000
    5.1494    8.5281    4.8664 C   0  0  0  0  0  0  0  0  0  0  0  0
    0.7340    7.9772    3.8930 C   0  0  0  0  0  0  0  0  0  0  0  0
    4.8240    9.5439    5.6526 F   0  0  0  0  0  0  0  0  0  0  0  0
    6.2616    7.9839    5.4092 F   0  0  0  0  0  0  0  0  0  0  0  0
    5.5114    8.9829    3.6710 F   0  0  0  0  0  0  0  0  0  0  0  0
    0.7157    6.6651    4.1553 F   0  0  0  0  0  0  0  0  0  0  0  0
    0.4937    8.6383    5.0161 F   0  0  0  0  0  0  0  0  0  0  0  0
   -0.2910    8.2163    3.0679 F   0  0  0  0  0  0  0  0  0  0  0  0
    3.8285    7.1611    4.7528 S   0  0  0  0  0  0  0  0  0  0  0  0
    2.3683    8.4727    3.0644 S   0  0  0  0  0  0  0  0  0  0  0  0
    3.2911    7.1943    3.2824 N   0  0  0  0  0  0  0  0  0  0  0  0
    4.6046    5.9616    4.9604 O   0  0  0  0  0  0  0  0  0  0  0  0
    2.8629    7.4668    5.7575 O   0  0  0  0  0  0  0  0  0  0  0  0
    2.8631    9.5890    3.8061 O   0  0  0  0  0  0  0  0  0  0  0  0
    2.0485    8.6400    1.6875 O   0  0  0  0  0  0  0  0  0  0  0  0
   10.4538    5.8735   10.0523 C   0  0  0  0  0  0  0  0  0  0  0  0
    8.8400    1.9775    8.4588 C   0  0  0  0  0  0  0  0  0  0  0  0
   10.3577    4.7602   10.7729 F   0  0  0  0  0  0  0  0  0  0  0  0
   11.6644    5.9695    9.5359 F   0  0  0  0  0  0  0  0  0  0  0  0
   10.3225    6.9020   10.9202 F   0  0  0  0  0  0  0  0  0  0  0  0
    9.3953    0.9540    7.8045 F   0  0  0  0  0  0  0  0  0  0  0  0
    9.1104    1.8372    9.7507 F   0  0  0  0  0  0  0  0  0  0  0  0
    7.5166    1.8755    8.3020 F   0  0  0  0  0  0  0  0  0  0  0  0
    9.0309    5.9993    8.8024 S   0  0  0  0  0  0  0  0  0  0  0  0
    9.4168    3.6419    7.7983 S   0  0  0  0  0  0  0  0  0  0  0  0
    8.4484    4.5553    8.6646 N   0  0  0  0  0  0  0  0  0  0  0  0
    8.1027    6.8439    9.5290 O   0  0  0  0  0  0  0  0  0  0  0  0
    9.5788    6.5498    7.6082 O   0  0  0  0  0  0  0  0  0  0  0  0
    9.0816    3.5831    6.4037 O   0  0  0  0  0  0  0  0  0  0  0  0
   10.7854    3.7987    8.1565 O   0  0  0  0  0  0  0  0  0  0  0  0
    2.3427    5.4823    0.2581 C   0  0  0  0  0  0  0  0  0  0  0  0
    2.4843    4.1654    0.3530 C   0  0  0  0  0  0  0  0  0  0  0  0
    2.0086    5.9419   -0.6563 H   0  0  0  0  0  0  0  0  0  0  0  0
    2.5577    6.1578    1.0703 H   0  0  0  0  0  0  0  0  0  0  0  0
    2.9385    3.4632    1.5483 C   0  0  0  0  0  0  0  0  0  0  0  0
    2.2879    3.5336   -0.5055 H   0  0  0  0  0  0  0  0  0  0  0  0
    3.4833    2.1817    1.4453 C   0  0  0  0  0  0  0  0  0  0  0  0
    3.9756    1.5259    2.5586 C   0  0  0  0  0  0  0  0  0  0  0  0
    3.9234    2.1239    3.8138 C   0  0  0  0  0  0  0  0  0  0  0  0
    2.8385    4.0365    2.8166 C   0  0  0  0  0  0  0  0  0  0  0  0
    3.3199    3.3746    3.9284 C   0  0  0  0  0  0  0  0  0  0  0  0
    2.3904    5.0073    2.9391 H   0  0  0  0  0  0  0  0  0  0  0  0
    3.2178    3.8425    4.8957 H   0  0  0  0  0  0  0  0  0  0  0  0
    4.3983    0.5360    2.4525 H   0  0  0  0  0  0  0  0  0  0  0  0
    3.5338    1.7015    0.4781 H   0  0  0  0  0  0  0  0  0  0  0  0
    4.5634    1.4817    5.0178 C   0  0  0  0  0  0  0  0  0  0  0  0
    5.9438    1.8987    5.2635 N   0  0  0  0  0  0  0  0  0  0  0  0
    4.5798    0.3946    4.9131 H   0  0  0  0  0  0  0  0  0  0  0  0
    3.9994    1.7279    5.9194 H   0  0  0  0  0  0  0  0  0  0  0  0
    6.1727    3.2817    5.4747 C   0  0  0  0  0  0  0  0  0  0  0  0
    6.9108    1.5531    4.2478 C   0  0  0  0  0  0  0  0  0  0  0  0
    6.9398    2.7618    3.2804 C   0  0  0  0  0  0  0  0  0  0  0  0
    6.6526    0.6215    3.7494 H   0  0  0  0  0  0  0  0  0  0  0  0
    7.8849    1.4475    4.7320 H   0  0  0  0  0  0  0  0  0  0  0  0
    6.4226    3.8874    4.0899 N   0  0  0  0  0  0  0  0  0  0  0  0
    6.3027    2.5943    2.4124 H   0  0  0  0  0  0  0  0  0  0  0  0
    7.9554    2.9769    2.9563 H   0  0  0  0  0  0  0  0  0  0  0  0
    7.0972    3.4250    6.0414 H   0  0  0  0  0  0  0  0  0  0  0  0
    5.3427    3.7969    5.9508 H   0  0  0  0  0  0  0  0  0  0  0  0
    7.2974    5.0747    4.1104 C   0  0  0  0  0  0  0  0  0  0  0  0
    7.4254    5.7123    2.7253 C   0  0  0  0  0  0  0  0  0  0  0  0
    8.2675    4.7791    4.5184 H   0  0  0  0  0  0  0  0  0  0  0  0
    6.8345    5.7849    4.7931 H   0  0  0  0  0  0  0  0  0  0  0  0
    6.0819    5.8899    2.0067 C   0  0  0  0  0  0  0  0  0  0  0  0
    8.0999    5.1340    2.0894 H   0  0  0  0  0  0  0  0  0  0  0  0
    7.8799    6.6931    2.8679 H   0  0  0  0  0  0  0  0  0  0  0  0
    6.1843    6.8852    0.8557 C   0  0  0  0  0  0  0  0  0  0  0  0
    5.3226    6.2500    2.7018 H   0  0  0  0  0  0  0  0  0  0  0  0
    5.7411    4.9326    1.6014 H   0  0  0  0  0  0  0  0  0  0  0  0
    6.4738    7.8647    1.2259 H   0  0  0  0  0  0  0  0  0  0  0  0
    5.2179    6.9836    0.3698 H   0  0  0  0  0  0  0  0  0  0  0  0
    6.9166    6.5561    0.1202 H   0  0  0  0  0  0  0  0  0  0  0  0
    5.5033    4.2108    3.7559 H   0  0  0  0  0  0  0  0  0  0  0  0
    8.6124    9.7472    4.3619 C   0  0  0  0  0  0  0  0  0  0  0  0
    8.4021   10.7673    5.1854 C   0  0  0  0  0  0  0  0  0  0  0  0
    8.4270    9.8411    3.3055 H   0  0  0  0  0  0  0  0  0  0  0  0
    8.9664    8.7896    4.7040 H   0  0  0  0  0  0  0  0  0  0  0  0
    8.6059   10.7590    6.6288 C   0  0  0  0  0  0  0  0  0  0  0  0
    8.0451   11.7077    4.7838 H   0  0  0  0  0  0  0  0  0  0  0  0
    8.4059   11.9365    7.3542 C   0  0  0  0  0  0  0  0  0  0  0  0
    8.5626   11.9677    8.7266 C   0  0  0  0  0  0  0  0  0  0  0  0
    8.9260   10.8193    9.4236 C   0  0  0  0  0  0  0  0  0  0  0  0
    9.0023    9.6193    7.3300 C   0  0  0  0  0  0  0  0  0  0  0  0
    9.1649    9.6563    8.7001 C   0  0  0  0  0  0  0  0  0  0  0  0
    9.1865    8.6861    6.8246 H   0  0  0  0  0  0  0  0  0  0  0  0
    9.4888    8.7607    9.2066 H   0  0  0  0  0  0  0  0  0  0  0  0
    8.4113   12.8965    9.2600 H   0  0  0  0  0  0  0  0  0  0  0  0
    8.1240   12.8393    6.8316 H   0  0  0  0  0  0  0  0  0  0  0  0
    9.0069   10.8066   10.9277 C   0  0  0  0  0  0  0  0  0  0  0  0
    7.7832   10.3696   11.6050 N   0  0  0  0  0  0  0  0  0  0  0  0
    9.2182   11.8115   11.3035 H   0  0  0  0  0  0  0  0  0  0  0  0
    9.8059   10.1417   11.2593 H   0  0  0  0  0  0  0  0  0  0  0  0
    7.4576    8.9903   11.5862 C   0  0  0  0  0  0  0  0  0  0  0  0
    6.5630   11.0234   11.1877 C   0  0  0  0  0  0  0  0  0  0  0  0
    5.9769   10.1156   10.0859 C   0  0  0  0  0  0  0  0  0  0  0  0
    6.7539   12.0332   10.8346 H   0  0  0  0  0  0  0  0  0  0  0  0
    5.8818   11.0705   12.0429 H   0  0  0  0  0  0  0  0  0  0  0  0
    6.4710    8.7626   10.4342 N   0  0  0  0  0  0  0  0  0  0  0  0
    6.3450   10.4067    9.1032 H   0  0  0  0  0  0  0  0  0  0  0  0
    4.8909   10.1428   10.0797 H   0  0  0  0  0  0  0  0  0  0  0  0
    6.9199    8.7345   12.5066 H   0  0  0  0  0  0  0  0  0  0  0  0
    8.3201    8.3379   11.4663 H   0  0  0  0  0  0  0  0  0  0  0  0
    5.4313    7.7674   10.7825 C   0  0  0  0  0  0  0  0  0  0  0  0
    4.3254    7.6264    9.7372 C   0  0  0  0  0  0  0  0  0  0  0  0
    4.9865    8.0599   11.7385 H   0  0  0  0  0  0  0  0  0  0  0  0
    5.9501    6.8147   10.8959 H   0  0  0  0  0  0  0  0  0  0  0  0
    4.8135    7.2999    8.3270 C   0  0  0  0  0  0  0  0  0  0  0  0
    3.7156    8.5305    9.7012 H   0  0  0  0  0  0  0  0  0  0  0  0
    3.6708    6.8212   10.0744 H   0  0  0  0  0  0  0  0  0  0  0  0
    5.3186    5.8696    8.1772 C   0  0  0  0  0  0  0  0  0  0  0  0
    5.5996    7.9934    8.0223 H   0  0  0  0  0  0  0  0  0  0  0  0
    3.9749    7.4401    7.6433 H   0  0  0  0  0  0  0  0  0  0  0  0
    5.5161    5.6866    7.1263 H   0  0  0  0  0  0  0  0  0  0  0  0
    4.5607    5.1651    8.5107 H   0  0  0  0  0  0  0  0  0  0  0  0
    6.2379    5.6917    8.7271 H   0  0  0  0  0  0  0  0  0  0  0  0
    7.0219    8.3244    9.6740 H   0  0  0  0  0  0  0  0  0  0  0  0
  1  3  1  0  0  0  0
  1  4  1  0  0  0  0
  1  5  1  0  0  0  0
  2  6  1  0  0  0  0
  2  7  1  0  0  0  0
  2  8  1  0  0  0  0
  1  9  1  0  0  0  0
  2 10  1  0  0  0  0
  9 11  1  0  0  0  0
 10 11  1  0  0  0  0
  9 12  2  0  0  0  0
  9 13  2  0  0  0  0
 10 14  2  0  0  0  0
 10 15  2  0  0  0  0
 16 18  1  0  0  0  0
 16 19  1  0  0  0  0
 16 20  1  0  0  0  0
 17 21  1  0  0  0  0
 17 22  1  0  0  0  0
 17 23  1  0  0  0  0
 16 24  1  0  0  0  0
 17 25  1  0  0  0  0
 24 26  1  0  0  0  0
 25 26  1  0  0  0  0
 24 27  2  0  0  0  0
 24 28  2  0  0  0  0
 25 29  2  0  0  0  0
 25 30  2  0  0  0  0
 31 32  2  0  0  0  0
 31 33  1  0  0  0  0
 31 34  1  0  0  0  0
 32 35  1  0  0  0  0
 32 36  1  0  0  0  0
 35 37  4  0  0  0  0
 37 38  4  0  0  0  0
 38 39  4  0  0  0  0
 35 40  4  0  0  0  0
 39 41  4  0  0  0  0
 40 41  4  0  0  0  0
 40 42  1  0  0  0  0
 41 43  1  0  0  0  0
 38 44  1  0  0  0  0
 37 45  1  0  0  0  0
 39 46  1  0  0  0  0
 46 47  1  0  0  0  0
 46 48  1  0  0  0  0
 46 49  1  0  0  0  0
 47 50  1  0  0  0  0
 47 51  1  0  0  0  0
 51 52  1  0  0  0  0
 51 53  1  0  0  0  0
 51 54  1  0  0  0  0
 50 55  1  0  0  0  0
 52 55  1  0  0  0  0
 52 56  1  0  0  0  0
 52 57  1  0  0  0  0
 50 58  1  0  0  0  0
 50 59  1  0  0  0  0
 55 60  1  0  0  0  0
 60 61  1  0  0  0  0
 60 62  1  0  0  0  0
 60 63  1  0  0  0  0
 61 64  1  0  0  0  0
 61 65  1  0  0  0  0
 61 66  1  0  0  0  0
 64 67  1  0  0  0  0
 64 68  1  0  0  0  0
 64 69  1  0  0  0  0
 67 70  1  0  0  0  0
 67 71  1  0  0  0  0
 67 72  1  0  0  0  0
 55 73  1  0  0  0  0
 74 75  2  0  0  0  0
 74 76  1  0  0  0  0
 74 77  1  0  0  0  0
 75 78  1  0  0  0  0
 75 79  1  0  0  0  0
 78 80  4  0  0  0  0
 80 81  4  0  0  0  0
 81 82  4  0  0  0  0
 78 83  4  0  0  0  0
 82 84  4  0  0  0  0
 83 84  4  0  0  0  0
 83 85  1  0  0  0  0
 84 86  1  0  0  0  0
 81 87  1  0  0  0  0
 80 88  1  0  0  0  0
 82 89  1  0  0  0  0
 89 90  1  0  0  0  0
 89 91  1  0  0  0  0
 89 92  1  0  0  0  0
 90 93  1  0  0  0  0
 90 94  1  0  0  0  0
 94 95  1  0  0  0  0
 94 96  1  0  0  0  0
 94 97  1  0  0  0  0
 93 98  1  0  0  0  0
 95 98  1  0  0  0  0
 95 99  1  0  0  0  0
 95100  1  0  0  0  0
 93101  1  0  0  0  0
 93102  1  0  0  0  0
 98103  1  0  0  0  0
103104  1  0  0  0  0
103105  1  0  0  0  0
103106  1  0  0  0  0
104107  1  0  0  0  0
104108  1  0  0  0  0
104109  1  0  0  0  0
107110  1  0  0  0  0
107111  1  0  0  0  0
107112  1  0  0  0  0
110113  1  0  0  0  0
110114  1  0  0  0  0
110115  1  0  0  0  0
 98116  1  0  0  0  0
M  END
