 xtb: 6.7.1 (edcfbbe)
          10212513403D

116116  0     0  0            999 V2000
    3.4519   10.0457    9.5599 C   0  0  0  0  0  0  0  0  0  0  0  0
    5.7029   11.2118    5.5840 C   0  0  0  0  0  0  0  0  0  0  0  0
    4.5819    9.9695   10.2241 F   0  0  0  0  0  0  0  0  0  0  0  0
    2.7381   11.0407   10.0990 F   0  0  0  0  0  0  0  0  0  0  0  0
    2.7573    8.9205    9.7744 F   0  0  0  0  0  0  0  0  0  0  0  0
    6.1540   12.0726    6.4642 F   0  0  0  0  0  0  0  0  0  0  0  0
    6.6256   11.1431    4.6040 F   0  0  0  0  0  0  0  0  0  0  0  0
    4.6183   11.7377    4.9954 F   0  0  0  0  0  0  0  0  0  0  0  0
    3.3517   10.4193    7.7151 S   0  0  0  0  0  0  0  0  0  0  0  0
    5.1920    9.4049    5.8617 S   0  0  0  0  0  0  0  0  0  0  0  0
    3.8831    9.2878    6.7310 N   0  0  0  0  0  0  0  0  0  0  0  0
    1.9136   10.2969    7.5897 O   0  0  0  0  0  0  0  0  0  0  0  0
    3.8840   11.7124    7.4726 O   0  0  0  0  0  0  0  0  0  0  0  0
    6.2754    8.4976    6.1463 O   0  0  0  0  0  0  0  0  0  0  0  0
    4.7351    9.1674    4.4981 O   0  0  0  0  0  0  0  0  0  0  0  0
    5.7478    6.7436    9.1529 C   0  0  0  0  0  0  0  0  0  0  0  0
    8.0163   10.8702    9.3537 C   0  0  0  0  0  0  0  0  0  0  0  0
    4.7713    7.5971    8.8442 F   0  0  0  0  0  0  0  0  0  0  0  0
    5.9063    5.9278    8.1064 F   0  0  0  0  0  0  0  0  0  0  0  0
    5.3107    5.9915   10.1655 F   0  0  0  0  0  0  0  0  0  0  0  0
    8.5588   11.9635    8.7974 F   0  0  0  0  0  0  0  0  0  0  0  0
    7.1512   11.2858   10.2587 F   0  0  0  0  0  0  0  0  0  0  0  0
    9.0208   10.2319    9.9660 F   0  0  0  0  0  0  0  0  0  0  0  0
    7.3192    7.6674    9.6352 S   0  0  0  0  0  0  0  0  0  0  0  0
    7.2828    9.7940    7.9791 S   0  0  0  0  0  0  0  0  0  0  0  0
    7.7918    8.3537    8.2969 N   0  0  0  0  0  0  0  0  0  0  0  0
    6.8990    8.5962   10.6271 O   0  0  0  0  0  0  0  0  0  0  0  0
    8.2207    6.6203    9.9968 O   0  0  0  0  0  0  0  0  0  0  0  0
    7.9783   10.2838    6.8208 O   0  0  0  0  0  0  0  0  0  0  0  0
    5.8610   10.0437    8.0415 O   0  0  0  0  0  0  0  0  0  0  0  0
    1.4454    1.7251   11.5614 C   0  0  0  0  0  0  0  0  0  0  0  0
    1.7751    1.7675   10.2757 C   0  0  0  0  0  0  0  0  0  0  0  0
    1.2996    0.7883   12.0717 H   0  0  0  0  0  0  0  0  0  0  0  0
    1.3087    2.6122   12.1589 H   0  0  0  0  0  0  0  0  0  0  0  0
    1.9964    2.9659    9.4749 C   0  0  0  0  0  0  0  0  0  0  0  0
    1.8874    0.8358    9.7325 H   0  0  0  0  0  0  0  0  0  0  0  0
    2.1747    2.8367    8.0956 C   0  0  0  0  0  0  0  0  0  0  0  0
    2.3816    3.9424    7.2957 C   0  0  0  0  0  0  0  0  0  0  0  0
    2.4159    5.2163    7.8508 C   0  0  0  0  0  0  0  0  0  0  0  0
    2.0391    4.2485   10.0227 C   0  0  0  0  0  0  0  0  0  0  0  0
    2.2395    5.3555    9.2219 C   0  0  0  0  0  0  0  0  0  0  0  0
    1.9216    4.3852   11.0856 H   0  0  0  0  0  0  0  0  0  0  0  0
    2.2708    6.3402    9.6643 H   0  0  0  0  0  0  0  0  0  0  0  0
    2.5132    3.8289    6.2299 H   0  0  0  0  0  0  0  0  0  0  0  0
    2.1498    1.8524    7.6490 H   0  0  0  0  0  0  0  0  0  0  0  0
    2.6641    6.4218    6.9865 C   0  0  0  0  0  0  0  0  0  0  0  0
    1.7876    6.4023    5.8138 N   0  0  0  0  0  0  0  0  0  0  0  0
    3.6960    6.4110    6.6270 H   0  0  0  0  0  0  0  0  0  0  0  0
    2.5454    7.3364    7.5794 H   0  0  0  0  0  0  0  0  0  0  0  0
    2.1678    7.3049    4.7798 C   0  0  0  0  0  0  0  0  0  0  0  0
    0.4335    6.8237    6.1352 C   0  0  0  0  0  0  0  0  0  0  0  0
    0.4263    8.3629    5.9735 C   0  0  0  0  0  0  0  0  0  0  0  0
    0.1646    6.5004    7.1382 H   0  0  0  0  0  0  0  0  0  0  0  0
   -0.2518    6.3564    5.4222 H   0  0  0  0  0  0  0  0  0  0  0  0
    1.6878    8.6511    5.2528 N   0  0  0  0  0  0  0  0  0  0  0  0
    0.4459    8.8941    6.9247 H   0  0  0  0  0  0  0  0  0  0  0  0
   -0.4269    8.7018    5.3883 H   0  0  0  0  0  0  0  0  0  0  0  0
    1.6277    7.0480    3.8631 H   0  0  0  0  0  0  0  0  0  0  0  0
    3.2407    7.3465    4.5980 H   0  0  0  0  0  0  0  0  0  0  0  0
    1.6606    9.7491    4.2694 C   0  0  0  0  0  0  0  0  0  0  0  0
    0.7891    9.4977    3.0416 C   0  0  0  0  0  0  0  0  0  0  0  0
    2.6956    9.9146    3.9604 H   0  0  0  0  0  0  0  0  0  0  0  0
    1.3202   10.6337    4.8092 H   0  0  0  0  0  0  0  0  0  0  0  0
    0.6950   10.7599    2.1787 C   0  0  0  0  0  0  0  0  0  0  0  0
   -0.2201    9.1968    3.3288 H   0  0  0  0  0  0  0  0  0  0  0  0
    1.2244    8.7000    2.4381 H   0  0  0  0  0  0  0  0  0  0  0  0
   -0.1590   11.8539    2.8089 C   0  0  0  0  0  0  0  0  0  0  0  0
    0.2606   10.4874    1.2147 H   0  0  0  0  0  0  0  0  0  0  0  0
    1.7007   11.1399    1.9967 H   0  0  0  0  0  0  0  0  0  0  0  0
   -1.1569   11.4813    3.0309 H   0  0  0  0  0  0  0  0  0  0  0  0
   -0.2551   12.6907    2.1223 H   0  0  0  0  0  0  0  0  0  0  0  0
    0.2858   12.2249    3.7275 H   0  0  0  0  0  0  0  0  0  0  0  0
    2.4158    8.9496    5.9549 H   0  0  0  0  0  0  0  0  0  0  0  0
    6.2261    1.5984    5.4971 C   0  0  0  0  0  0  0  0  0  0  0  0
    5.8473    2.8716    5.4906 C   0  0  0  0  0  0  0  0  0  0  0  0
    5.8880    0.9225    6.2624 H   0  0  0  0  0  0  0  0  0  0  0  0
    6.8821    1.1751    4.7548 H   0  0  0  0  0  0  0  0  0  0  0  0
    6.2330    3.8879    4.5199 C   0  0  0  0  0  0  0  0  0  0  0  0
    5.1962    3.2332    6.2788 H   0  0  0  0  0  0  0  0  0  0  0  0
    5.7572    5.1885    4.6898 C   0  0  0  0  0  0  0  0  0  0  0  0
    6.0867    6.2020    3.8110 C   0  0  0  0  0  0  0  0  0  0  0  0
    6.9193    5.9440    2.7272 C   0  0  0  0  0  0  0  0  0  0  0  0
    7.0571    3.6340    3.4222 C   0  0  0  0  0  0  0  0  0  0  0  0
    7.3962    4.6474    2.5479 C   0  0  0  0  0  0  0  0  0  0  0  0
    7.4374    2.6398    3.2482 H   0  0  0  0  0  0  0  0  0  0  0  0
    8.0315    4.4287    1.6992 H   0  0  0  0  0  0  0  0  0  0  0  0
    5.6951    7.1929    3.9771 H   0  0  0  0  0  0  0  0  0  0  0  0
    5.1293    5.4091    5.5368 H   0  0  0  0  0  0  0  0  0  0  0  0
    7.3421    7.0434    1.7876 C   0  0  0  0  0  0  0  0  0  0  0  0
    8.3987    7.9180    2.2977 N   0  0  0  0  0  0  0  0  0  0  0  0
    6.4946    7.6830    1.5431 H   0  0  0  0  0  0  0  0  0  0  0  0
    7.7195    6.6037    0.8578 H   0  0  0  0  0  0  0  0  0  0  0  0
    9.4415    7.2950    3.0568 C   0  0  0  0  0  0  0  0  0  0  0  0
    7.9635    9.1053    3.0435 C   0  0  0  0  0  0  0  0  0  0  0  0
    9.0032    9.2723    4.1477 C   0  0  0  0  0  0  0  0  0  0  0  0
    6.9686    8.9719    3.4755 H   0  0  0  0  0  0  0  0  0  0  0  0
    7.9370    9.9719    2.3806 H   0  0  0  0  0  0  0  0  0  0  0  0
    9.3787    7.8727    4.4342 N   0  0  0  0  0  0  0  0  0  0  0  0
    8.6141    9.7680    5.0372 H   0  0  0  0  0  0  0  0  0  0  0  0
    9.8857    9.7969    3.7756 H   0  0  0  0  0  0  0  0  0  0  0  0
   10.4248    7.5750    2.6482 H   0  0  0  0  0  0  0  0  0  0  0  0
    9.3536    6.2043    3.0744 H   0  0  0  0  0  0  0  0  0  0  0  0
   10.6143    7.6777    5.2241 C   0  0  0  0  0  0  0  0  0  0  0  0
   10.3287    7.6175    6.7206 C   0  0  0  0  0  0  0  0  0  0  0  0
   11.2945    8.4981    4.9867 H   0  0  0  0  0  0  0  0  0  0  0  0
   11.0777    6.7402    4.9032 H   0  0  0  0  0  0  0  0  0  0  0  0
    9.8799    6.2324    7.1886 C   0  0  0  0  0  0  0  0  0  0  0  0
    9.5575    8.3412    6.9865 H   0  0  0  0  0  0  0  0  0  0  0  0
   11.2374    7.8880    7.2584 H   0  0  0  0  0  0  0  0  0  0  0  0
    8.6044    5.7407    6.5101 C   0  0  0  0  0  0  0  0  0  0  0  0
    9.6806    6.3002    8.2572 H   0  0  0  0  0  0  0  0  0  0  0  0
   10.6845    5.5082    7.0314 H   0  0  0  0  0  0  0  0  0  0  0  0
    8.2104    4.8874    7.0554 H   0  0  0  0  0  0  0  0  0  0  0  0
    8.7766    5.4100    5.4850 H   0  0  0  0  0  0  0  0  0  0  0  0
    7.8424    6.5179    6.5465 H   0  0  0  0  0  0  0  0  0  0  0  0
    8.5963    7.4620    4.9669 H   0  0  0  0  0  0  0  0  0  0  0  0
  1  3  1  0  0  0  0
  1  4  1  0  0  0  0
  1  5  1  0  0  0  0
  2  6  1  0  0  0  0
  2  7  1  0  0  0  0
  2  8  1  0  0  0  0
  1  9  1  0  0  0  0
  2 10  1  0  0  0  0
  9 11  1  0  0  0  0
 10 11  1  0  0  0  0
  9 12  2  0  0  0  0
  9 13  2  0  0  0  0
 10 14  2  0  0  0  0
 10 15  2  0  0  0  0
 16 18  1  0  0  0  0
 16 19  1  0  0  0  0
 16 20  1  0  0  0  0
 17 21  1  0  0  0  0
 17 22  1  0  0  0  0
 17 23  1  0  0  0  0
 16 24  1  0  0  0  0
 17 25  1  0  0  0  0
 24 26  1  0  0  0  0
 25 26  1  0  0  0  0
 24 27  2  0  0  0  0
 24 28  2  0  0  0  0
 25 29  2  0  0  0  0
 25 30  2  0  0  0  0
 31 32  2  0  0  0  0
 31 33  1  0  0  0  0
 31 34  1  0  0  0  0
 32 35  1  0  0  0  0
 32 36  1  0  0  0  0
 35 37  4  0  0  0  0
 37 38  4  0  0  0  0
 38 39  4  0  0  0  0
 35 40  4  0  0  0  0
 39 41  4  0  0  0  0
 40 41  4  0  0  0  0
 40 42  1  0  0  0  0
 41 43  1  0  0  0  0
 38 44  1  0  0  0  0
 37 45  1  0  0  0  0
 39 46  1  0  0  0  0
 46 47  1  0  0  0  0
 46 48  1  0  0  0  0
 46 49  1  0  0  0  0
 47 50  1  0  0  0  0
 47 51  1  0  0  0  0
 51 52  1  0  0  0  0
 51 53  1  0  0  0  0
 51 54  1  0  0  0  0
 50 55  1  0  0  0  0
 52 55  1  0  0  0  0
 52 56  1  0  0  0  0
 52 57  1  0  0  0  0
 50 58  1  0  0  0  0
 50 59  1  0  0  0  0
 55 60  1  0  0  0  0
 60 61  1  0  0  0  0
 60 62  1  0  0  0  0
 60 63  1  0  0  0  0
 61 64  1  0  0  0  0
 61 65  1  0  0  0  0
 61 66  1  0  0  0  0
 64 67  1  0  0  0  0
 64 68  1  0  0  0  0
 64 69  1  0  0  0  0
 67 70  1  0  0  0  0
 67 71  1  0  0  0  0
 67 72  1  0  0  0  0
 55 73  1  0  0  0  0
 74 75  2  0  0  0  0
 74 76  1  0  0  0  0
 74 77  1  0  0  0  0
 75 78  1  0  0  0  0
 75 79  1  0  0  0  0
 78 80  4  0  0  0  0
 80 81  4  0  0  0  0
 81 82  4  0  0  0  0
 78 83  4  0  0  0  0
 82 84  4  0  0  0  0
 83 84  4  0  0  0  0
 83 85  1  0  0  0  0
 84 86  1  0  0  0  0
 81 87  1  0  0  0  0
 80 88  1  0  0  0  0
 82 89  1  0  0  0  0
 89 90  1  0  0  0  0
 89 91  1  0  0  0  0
 89 92  1  0  0  0  0
 90 93  1  0  0  0  0
 90 94  1  0  0  0  0
 94 95  1  0  0  0  0
 94 96  1  0  0  0  0
 94 97  1  0  0  0  0
 93 98  1  0  0  0  0
 95 98  1  0  0  0  0
 95 99  1  0  0  0  0
 95100  1  0  0  0  0
 93101  1  0  0  0  0
 93102  1  0  0  0  0
 98103  1  0  0  0  0
103104  1  0  0  0  0
103105  1  0  0  0  0
103106  1  0  0  0  0
104107  1  0  0  0  0
104108  1  0  0  0  0
104109  1  0  0  0  0
107110  1  0  0  0  0
107111  1  0  0  0  0
107112  1  0  0  0  0
110113  1  0  0  0  0
110114  1  0  0  0  0
110115  1  0  0  0  0
 98116  1  0  0  0  0
M  END
