 xtb: 6.7.1 (edcfbbe)
          10212513493D

116116  0     0  0            999 V2000
    0.0794    3.0754    6.2985 C   0  0  0  0  0  0  0  0  0  0  0  0
    2.6617    0.6665    9.2564 C   0  0  0  0  0  0  0  0  0  0  0  0
   -0.8218    3.1701    7.2639 F   0  0  0  0  0  0  0  0  0  0  0  0
    0.8544    4.1756    6.3386 F   0  0  0  0  0  0  0  0  0  0  0  0
   -0.5826    3.1399    5.1342 F   0  0  0  0  0  0  0  0  0  0  0  0
    3.0237   -0.2771    8.3827 F   0  0  0  0  0  0  0  0  0  0  0  0
    3.5937    0.6911   10.2140 F   0  0  0  0  0  0  0  0  0  0  0  0
    1.5202    0.3185    9.8249 F   0  0  0  0  0  0  0  0  0  0  0  0
    1.1334    1.4915    6.3503 S   0  0  0  0  0  0  0  0  0  0  0  0
    2.6009    2.3423    8.3856 S   0  0  0  0  0  0  0  0  0  0  0  0
    2.5463    1.9993    6.8444 N   0  0  0  0  0  0  0  0  0  0  0  0
    0.4901    0.6115    7.2633 O   0  0  0  0  0  0  0  0  0  0  0  0
    1.2411    1.1214    4.9713 O   0  0  0  0  0  0  0  0  0  0  0  0
    3.8634    2.9560    8.6672 O   0  0  0  0  0  0  0  0  0  0  0  0
    1.4225    3.0146    8.8434 O   0  0  0  0  0  0  0  0  0  0  0  0
    7.4256    3.8017    9.1890 C   0  0  0  0  0  0  0  0  0  0  0  0
   10.6219    6.7491    9.4113 C   0  0  0  0  0  0  0  0  0  0  0  0
    8.5523    3.7974    9.9042 F   0  0  0  0  0  0  0  0  0  0  0  0
    6.4541    4.2982    9.9314 F   0  0  0  0  0  0  0  0  0  0  0  0
    7.1272    2.5229    8.9282 F   0  0  0  0  0  0  0  0  0  0  0  0
   10.7353    7.7756   10.2591 F   0  0  0  0  0  0  0  0  0  0  0  0
   10.8630    5.6329   10.0928 F   0  0  0  0  0  0  0  0  0  0  0  0
   11.5750    6.8817    8.4903 F   0  0  0  0  0  0  0  0  0  0  0  0
    7.7320    4.6799    7.5390 S   0  0  0  0  0  0  0  0  0  0  0  0
    8.9304    6.7168    8.5975 S   0  0  0  0  0  0  0  0  0  0  0  0
    9.1027    5.4180    7.6989 N   0  0  0  0  0  0  0  0  0  0  0  0
    7.8123    3.5890    6.6040 O   0  0  0  0  0  0  0  0  0  0  0  0
    6.6273    5.5701    7.2918 O   0  0  0  0  0  0  0  0  0  0  0  0
    8.8650    7.9423    7.8634 O   0  0  0  0  0  0  0  0  0  0  0  0
    7.9657    6.5356    9.6394 O   0  0  0  0  0  0  0  0  0  0  0  0
   10.5202    2.1127    1.9573 C   0  0  0  0  0  0  0  0  0  0  0  0
    9.3393    2.3686    1.4074 C   0  0  0  0  0  0  0  0  0  0  0  0
   11.2501    1.5054    1.4504 H   0  0  0  0  0  0  0  0  0  0  0  0
   10.8096    2.4921    2.9218 H   0  0  0  0  0  0  0  0  0  0  0  0
    8.2691    3.1692    1.9898 C   0  0  0  0  0  0  0  0  0  0  0  0
    9.1117    1.9528    0.4332 H   0  0  0  0  0  0  0  0  0  0  0  0
    7.0639    3.2974    1.2951 C   0  0  0  0  0  0  0  0  0  0  0  0
    6.0126    4.0306    1.8121 C   0  0  0  0  0  0  0  0  0  0  0  0
    6.1271    4.6587    3.0486 C   0  0  0  0  0  0  0  0  0  0  0  0
    8.3890    3.8272    3.2159 C   0  0  0  0  0  0  0  0  0  0  0  0
    7.3376    4.5573    3.7343 C   0  0  0  0  0  0  0  0  0  0  0  0
    9.3039    3.7728    3.7817 H   0  0  0  0  0  0  0  0  0  0  0  0
    7.4591    5.0518    4.6857 H   0  0  0  0  0  0  0  0  0  0  0  0
    5.1003    4.1238    1.2398 H   0  0  0  0  0  0  0  0  0  0  0  0
    6.9534    2.8158    0.3338 H   0  0  0  0  0  0  0  0  0  0  0  0
    4.9699    5.3953    3.6762 C   0  0  0  0  0  0  0  0  0  0  0  0
    4.0609    4.5687    4.4733 N   0  0  0  0  0  0  0  0  0  0  0  0
    4.3612    5.8736    2.9041 H   0  0  0  0  0  0  0  0  0  0  0  0
    5.3552    6.1690    4.3443 H   0  0  0  0  0  0  0  0  0  0  0  0
    4.6481    3.8983    5.5853 C   0  0  0  0  0  0  0  0  0  0  0  0
    3.3777    3.5078    3.7540 C   0  0  0  0  0  0  0  0  0  0  0  0
    4.1848    2.2156    4.0193 C   0  0  0  0  0  0  0  0  0  0  0  0
    3.2908    3.7425    2.6953 H   0  0  0  0  0  0  0  0  0  0  0  0
    2.3756    3.3857    4.1697 H   0  0  0  0  0  0  0  0  0  0  0  0
    5.2055    2.6070    5.0175 N   0  0  0  0  0  0  0  0  0  0  0  0
    4.6582    1.8239    3.1200 H   0  0  0  0  0  0  0  0  0  0  0  0
    3.5189    1.4717    4.4572 H   0  0  0  0  0  0  0  0  0  0  0  0
    3.8735    3.6035    6.2991 H   0  0  0  0  0  0  0  0  0  0  0  0
    5.4207    4.4821    6.0861 H   0  0  0  0  0  0  0  0  0  0  0  0
    5.5289    1.5717    6.0177 C   0  0  0  0  0  0  0  0  0  0  0  0
    5.9690    0.2609    5.3700 C   0  0  0  0  0  0  0  0  0  0  0  0
    4.6351    1.4135    6.6232 H   0  0  0  0  0  0  0  0  0  0  0  0
    6.3239    1.9723    6.6462 H   0  0  0  0  0  0  0  0  0  0  0  0
    7.1791    0.3751    4.4376 C   0  0  0  0  0  0  0  0  0  0  0  0
    5.1317   -0.1790    4.8245 H   0  0  0  0  0  0  0  0  0  0  0  0
    6.2202   -0.4228    6.1816 H   0  0  0  0  0  0  0  0  0  0  0  0
    8.4594    0.7764    5.1609 C   0  0  0  0  0  0  0  0  0  0  0  0
    6.9809    1.0838    3.6283 H   0  0  0  0  0  0  0  0  0  0  0  0
    7.3308   -0.6004    3.9695 H   0  0  0  0  0  0  0  0  0  0  0  0
    8.6894    0.0554    5.9411 H   0  0  0  0  0  0  0  0  0  0  0  0
    8.3723    1.7581    5.6173 H   0  0  0  0  0  0  0  0  0  0  0  0
    9.2876    0.7957    4.4570 H   0  0  0  0  0  0  0  0  0  0  0  0
    6.0869    2.8628    4.5495 H   0  0  0  0  0  0  0  0  0  0  0  0
    7.5194    8.1058    3.8861 C   0  0  0  0  0  0  0  0  0  0  0  0
    7.0734    8.0583    5.1367 C   0  0  0  0  0  0  0  0  0  0  0  0
    8.3188    7.4658    3.5563 H   0  0  0  0  0  0  0  0  0  0  0  0
    7.1276    8.7875    3.1474 H   0  0  0  0  0  0  0  0  0  0  0  0
    6.0157    8.8922    5.6944 C   0  0  0  0  0  0  0  0  0  0  0  0
    7.5301    7.3873    5.8510 H   0  0  0  0  0  0  0  0  0  0  0  0
    5.1408    9.6428    4.9074 C   0  0  0  0  0  0  0  0  0  0  0  0
    4.1804   10.4496    5.4860 C   0  0  0  0  0  0  0  0  0  0  0  0
    4.0556   10.5313    6.8687 C   0  0  0  0  0  0  0  0  0  0  0  0
    5.8837    8.9643    7.0839 C   0  0  0  0  0  0  0  0  0  0  0  0
    4.9217    9.7748    7.6587 C   0  0  0  0  0  0  0  0  0  0  0  0
    6.5664    8.4011    7.7013 H   0  0  0  0  0  0  0  0  0  0  0  0
    4.8849    9.8635    8.7374 H   0  0  0  0  0  0  0  0  0  0  0  0
    3.5336   11.0440    4.8550 H   0  0  0  0  0  0  0  0  0  0  0  0
    5.2148    9.6039    3.8318 H   0  0  0  0  0  0  0  0  0  0  0  0
    2.9870   11.3974    7.4869 C   0  0  0  0  0  0  0  0  0  0  0  0
    1.7412   10.7009    7.8244 N   0  0  0  0  0  0  0  0  0  0  0  0
    2.7127   12.1993    6.7978 H   0  0  0  0  0  0  0  0  0  0  0  0
    3.3510   11.8583    8.4076 H   0  0  0  0  0  0  0  0  0  0  0  0
    1.8038    9.7789    8.8953 C   0  0  0  0  0  0  0  0  0  0  0  0
    1.1345    9.9355    6.7531 C   0  0  0  0  0  0  0  0  0  0  0  0
    1.6915    8.4959    6.8972 C   0  0  0  0  0  0  0  0  0  0  0  0
    1.3607   10.3728    5.7845 H   0  0  0  0  0  0  0  0  0  0  0  0
    0.0510    9.9418    6.8969 H   0  0  0  0  0  0  0  0  0  0  0  0
    2.2050    8.4398    8.2889 N   0  0  0  0  0  0  0  0  0  0  0  0
    2.5002    8.3080    6.1926 H   0  0  0  0  0  0  0  0  0  0  0  0
    0.9166    7.7446    6.7555 H   0  0  0  0  0  0  0  0  0  0  0  0
    0.8047    9.6374    9.3233 H   0  0  0  0  0  0  0  0  0  0  0  0
    2.5012   10.0788    9.6767 H   0  0  0  0  0  0  0  0  0  0  0  0
    1.7672    7.2675    9.0786 C   0  0  0  0  0  0  0  0  0  0  0  0
    2.5279    6.0224    8.6455 C   0  0  0  0  0  0  0  0  0  0  0  0
    0.6909    7.1386    8.9510 H   0  0  0  0  0  0  0  0  0  0  0  0
    1.9718    7.4755   10.1302 H   0  0  0  0  0  0  0  0  0  0  0  0
    4.0476    6.1808    8.7420 C   0  0  0  0  0  0  0  0  0  0  0  0
    2.2638    5.7538    7.6225 H   0  0  0  0  0  0  0  0  0  0  0  0
    2.2096    5.1907    9.2735 H   0  0  0  0  0  0  0  0  0  0  0  0
    4.5483    6.7186   10.0781 C   0  0  0  0  0  0  0  0  0  0  0  0
    4.4371    6.7923    7.9233 H   0  0  0  0  0  0  0  0  0  0  0  0
    4.4726    5.1902    8.6019 H   0  0  0  0  0  0  0  0  0  0  0  0
    4.2271    7.7422   10.2786 H   0  0  0  0  0  0  0  0  0  0  0  0
    5.6348    6.7049   10.0765 H   0  0  0  0  0  0  0  0  0  0  0  0
    4.2073    6.0799   10.8876 H   0  0  0  0  0  0  0  0  0  0  0  0
    3.2376    8.4008    8.2489 H   0  0  0  0  0  0  0  0  0  0  0  0
  1  3  1  0  0  0  0
  1  4  1  0  0  0  0
  1  5  1  0  0  0  0
  2  6  1  0  0  0  0
  2  7  1  0  0  0  0
  2  8  1  0  0  0  0
  1  9  1  0  0  0  0
  2 10  1  0  0  0  0
  9 11  1  0  0  0  0
 10 11  1  0  0  0  0
  9 12  2  0  0  0  0
  9 13  2  0  0  0  0
 10 14  2  0  0  0  0
 10 15  2  0  0  0  0
 16 18  1  0  0  0  0
 16 19  1  0  0  0  0
 16 20  1  0  0  0  0
 17 21  1  0  0  0  0
 17 22  1  0  0  0  0
 17 23  1  0  0  0  0
 16 24  1  0  0  0  0
 17 25  1  0  0  0  0
 24 26  1  0  0  0  0
 25 26  1  0  0  0  0
 24 27  2  0  0  0  0
 24 28  2  0  0  0  0
 25 29  2  0  0  0  0
 25 30  2  0  0  0  0
 31 32  2  0  0  0  0
 31 33  1  0  0  0  0
 31 34  1  0  0  0  0
 32 35  1  0  0  0  0
 32 36  1  0  0  0  0
 35 37  4  0  0  0  0
 37 38  4  0  0  0  0
 38 39  4  0  0  0  0
 35 40  4  0  0  0  0
 39 41  4  0  0  0  0
 40 41  4  0  0  0  0
 40 42  1  0  0  0  0
 41 43  1  0  0  0  0
 38 44  1  0  0  0  0
 37 45  1  0  0  0  0
 39 46  1  0  0  0  0
 46 47  1  0  0  0  0
 46 48  1  0  0  0  0
 46 49  1  0  0  0  0
 47 50  1  0  0  0  0
 47 51  1  0  0  0  0
 51 52  1  0  0  0  0
 51 53  1  0  0  0  0
 51 54  1  0  0  0  0
 50 55  1  0  0  0  0
 52 55  1  0  0  0  0
 52 56  1  0  0  0  0
 52 57  1  0  0  0  0
 50 58  1  0  0  0  0
 50 59  1  0  0  0  0
 55 60  1  0  0  0  0
 60 61  1  0  0  0  0
 60 62  1  0  0  0  0
 60 63  1  0  0  0  0
 61 64  1  0  0  0  0
 61 65  1  0  0  0  0
 61 66  1  0  0  0  0
 64 67  1  0  0  0  0
 64 68  1  0  0  0  0
 64 69  1  0  0  0  0
 67 70  1  0  0  0  0
 67 71  1  0  0  0  0
 67 72  1  0  0  0  0
 55 73  1  0  0  0  0
 74 75  2  0  0  0  0
 74 76  1  0  0  0  0
 74 77  1  0  0  0  0
 75 78  1  0  0  0  0
 75 79  1  0  0  0  0
 78 80  4  0  0  0  0
 80 81  4  0  0  0  0
 81 82  4  0  0  0  0
 78 83  4  0  0  0  0
 82 84  4  0  0  0  0
 83 84  4  0  0  0  0
 83 85  1  0  0  0  0
 84 86  1  0  0  0  0
 81 87  1  0  0  0  0
 80 88  1  0  0  0  0
 82 89  1  0  0  0  0
 89 90  1  0  0  0  0
 89 91  1  0  0  0  0
 89 92  1  0  0  0  0
 90 93  1  0  0  0  0
 90 94  1  0  0  0  0
 94 95  1  0  0  0  0
 94 96  1  0  0  0  0
 94 97  1  0  0  0  0
 93 98  1  0  0  0  0
 95 98  1  0  0  0  0
 95 99  1  0  0  0  0
 95100  1  0  0  0  0
 93101  1  0  0  0  0
 93102  1  0  0  0  0
 98103  1  0  0  0  0
103104  1  0  0  0  0
103105  1  0  0  0  0
103106  1  0  0  0  0
104107  1  0  0  0  0
104108  1  0  0  0  0
104109  1  0  0  0  0
107110  1  0  0  0  0
107111  1  0  0  0  0
107112  1  0  0  0  0
110113  1  0  0  0  0
110114  1  0  0  0  0
110115  1  0  0  0  0
 98116  1  0  0  0  0
M  END
