 xtb: 6.7.1 (edcfbbe)
          10212513403D

116116  0     0  0            999 V2000
    5.8259    2.1772    2.0779 C   0  0  0  0  0  0  0  0  0  0  0  0
    2.9022    5.5165    3.8287 C   0  0  0  0  0  0  0  0  0  0  0  0
    7.0219    1.9342    2.6271 F   0  0  0  0  0  0  0  0  0  0  0  0
    5.4063    1.0604    1.4946 F   0  0  0  0  0  0  0  0  0  0  0  0
    6.0316    3.0855    1.1157 F   0  0  0  0  0  0  0  0  0  0  0  0
    2.0206    5.3825    2.8583 F   0  0  0  0  0  0  0  0  0  0  0  0
    2.6548    4.6466    4.7991 F   0  0  0  0  0  0  0  0  0  0  0  0
    2.7028    6.7364    4.3623 F   0  0  0  0  0  0  0  0  0  0  0  0
    4.6439    2.8213    3.4035 S   0  0  0  0  0  0  0  0  0  0  0  0
    4.7002    5.4418    3.2594 S   0  0  0  0  0  0  0  0  0  0  0  0
    5.3861    4.1592    3.8334 N   0  0  0  0  0  0  0  0  0  0  0  0
    3.4217    3.1411    2.7330 O   0  0  0  0  0  0  0  0  0  0  0  0
    4.6588    1.8150    4.4023 O   0  0  0  0  0  0  0  0  0  0  0  0
    5.2935    6.5973    3.9212 O   0  0  0  0  0  0  0  0  0  0  0  0
    4.7340    5.5789    1.8348 O   0  0  0  0  0  0  0  0  0  0  0  0
   10.6030    2.3679    8.6554 C   0  0  0  0  0  0  0  0  0  0  0  0
    7.0607    1.6877   11.7425 C   0  0  0  0  0  0  0  0  0  0  0  0
   11.3129    3.1570    7.8315 F   0  0  0  0  0  0  0  0  0  0  0  0
   11.4716    1.7478    9.4303 F   0  0  0  0  0  0  0  0  0  0  0  0
    9.9739    1.4898    7.8809 F   0  0  0  0  0  0  0  0  0  0  0  0
    5.7825    2.0689   11.5755 F   0  0  0  0  0  0  0  0  0  0  0  0
    7.0575    0.6016   12.5064 F   0  0  0  0  0  0  0  0  0  0  0  0
    7.6432    2.6739   12.4379 F   0  0  0  0  0  0  0  0  0  0  0  0
    9.3820    3.4814    9.5653 S   0  0  0  0  0  0  0  0  0  0  0  0
    7.8649    1.3763   10.0496 S   0  0  0  0  0  0  0  0  0  0  0  0
    7.9455    2.8384    9.4456 N   0  0  0  0  0  0  0  0  0  0  0  0
    9.8270    3.6506   10.9181 O   0  0  0  0  0  0  0  0  0  0  0  0
    9.3988    4.7019    8.7989 O   0  0  0  0  0  0  0  0  0  0  0  0
    6.8921    0.5730    9.3938 O   0  0  0  0  0  0  0  0  0  0  0  0
    9.1593    0.8507   10.3337 O   0  0  0  0  0  0  0  0  0  0  0  0
    4.0152    2.1023    8.1752 C   0  0  0  0  0  0  0  0  0  0  0  0
    4.1156    3.2039    7.4421 C   0  0  0  0  0  0  0  0  0  0  0  0
    3.0560    1.7341    8.4988 H   0  0  0  0  0  0  0  0  0  0  0  0
    4.8774    1.5352    8.4833 H   0  0  0  0  0  0  0  0  0  0  0  0
    5.3737    3.7657    6.9616 C   0  0  0  0  0  0  0  0  0  0  0  0
    3.2270    3.7639    7.1775 H   0  0  0  0  0  0  0  0  0  0  0  0
    6.4994    2.9676    6.7666 C   0  0  0  0  0  0  0  0  0  0  0  0
    7.6828    3.5245    6.3338 C   0  0  0  0  0  0  0  0  0  0  0  0
    7.7960    4.8921    6.1058 C   0  0  0  0  0  0  0  0  0  0  0  0
    5.4746    5.1280    6.6841 C   0  0  0  0  0  0  0  0  0  0  0  0
    6.6709    5.6871    6.2762 C   0  0  0  0  0  0  0  0  0  0  0  0
    4.6052    5.7654    6.7875 H   0  0  0  0  0  0  0  0  0  0  0  0
    6.7201    6.7514    6.0922 H   0  0  0  0  0  0  0  0  0  0  0  0
    8.5407    2.8890    6.1734 H   0  0  0  0  0  0  0  0  0  0  0  0
    6.4355    1.9070    6.9382 H   0  0  0  0  0  0  0  0  0  0  0  0
    9.1177    5.4744    5.6737 C   0  0  0  0  0  0  0  0  0  0  0  0
    9.2452    5.7979    4.2523 N   0  0  0  0  0  0  0  0  0  0  0  0
    9.9081    4.7562    5.9034 H   0  0  0  0  0  0  0  0  0  0  0  0
    9.3304    6.3816    6.2416 H   0  0  0  0  0  0  0  0  0  0  0  0
    8.7784    7.0816    3.8087 C   0  0  0  0  0  0  0  0  0  0  0  0
    8.7131    4.7808    3.3412 C   0  0  0  0  0  0  0  0  0  0  0  0
    8.1036    5.5713    2.1878 C   0  0  0  0  0  0  0  0  0  0  0  0
    7.9416    4.1782    3.8344 H   0  0  0  0  0  0  0  0  0  0  0  0
    9.5178    4.1224    3.0068 H   0  0  0  0  0  0  0  0  0  0  0  0
    7.6781    6.8227    2.8421 N   0  0  0  0  0  0  0  0  0  0  0  0
    7.2514    5.0790    1.7247 H   0  0  0  0  0  0  0  0  0  0  0  0
    8.8587    5.8061    1.4359 H   0  0  0  0  0  0  0  0  0  0  0  0
    9.5865    7.5982    3.2681 H   0  0  0  0  0  0  0  0  0  0  0  0
    8.4322    7.7146    4.6292 H   0  0  0  0  0  0  0  0  0  0  0  0
    7.2858    7.9220    1.9367 C   0  0  0  0  0  0  0  0  0  0  0  0
    8.3018    8.2622    0.8474 C   0  0  0  0  0  0  0  0  0  0  0  0
    7.0887    8.7934    2.5635 H   0  0  0  0  0  0  0  0  0  0  0  0
    6.3391    7.6238    1.4794 H   0  0  0  0  0  0  0  0  0  0  0  0
    8.0030    9.6316    0.2278 C   0  0  0  0  0  0  0  0  0  0  0  0
    8.2590    7.5077    0.0619 H   0  0  0  0  0  0  0  0  0  0  0  0
    9.3158    8.2802    1.2510 H   0  0  0  0  0  0  0  0  0  0  0  0
    8.4531   10.7907    1.1089 C   0  0  0  0  0  0  0  0  0  0  0  0
    6.9332    9.7091    0.0298 H   0  0  0  0  0  0  0  0  0  0  0  0
    8.5224    9.7015   -0.7290 H   0  0  0  0  0  0  0  0  0  0  0  0
    7.9378   10.7861    2.0656 H   0  0  0  0  0  0  0  0  0  0  0  0
    8.2410   11.7368    0.6186 H   0  0  0  0  0  0  0  0  0  0  0  0
    9.5237   10.7365    1.2938 H   0  0  0  0  0  0  0  0  0  0  0  0
    6.8025    6.6251    3.3996 H   0  0  0  0  0  0  0  0  0  0  0  0
    5.0020   10.4366    3.2194 C   0  0  0  0  0  0  0  0  0  0  0  0
    4.6484    9.6362    4.2175 C   0  0  0  0  0  0  0  0  0  0  0  0
    4.4345   10.4804    2.3065 H   0  0  0  0  0  0  0  0  0  0  0  0
    5.8455   11.1077    3.2860 H   0  0  0  0  0  0  0  0  0  0  0  0
    5.3492    9.5227    5.4918 C   0  0  0  0  0  0  0  0  0  0  0  0
    3.7675    9.0183    4.1270 H   0  0  0  0  0  0  0  0  0  0  0  0
    4.6415    9.1349    6.6285 C   0  0  0  0  0  0  0  0  0  0  0  0
    5.2669    9.0445    7.8571 C   0  0  0  0  0  0  0  0  0  0  0  0
    6.6258    9.3074    7.9847 C   0  0  0  0  0  0  0  0  0  0  0  0
    6.7114    9.7911    5.6277 C   0  0  0  0  0  0  0  0  0  0  0  0
    7.3413    9.6713    6.8505 C   0  0  0  0  0  0  0  0  0  0  0  0
    7.2884   10.0885    4.7638 H   0  0  0  0  0  0  0  0  0  0  0  0
    8.4014    9.8593    6.9359 H   0  0  0  0  0  0  0  0  0  0  0  0
    4.6840    8.7722    8.7279 H   0  0  0  0  0  0  0  0  0  0  0  0
    3.5889    8.9129    6.5409 H   0  0  0  0  0  0  0  0  0  0  0  0
    7.3509    9.1053    9.2894 C   0  0  0  0  0  0  0  0  0  0  0  0
    8.0485    7.8245    9.2105 N   0  0  0  0  0  0  0  0  0  0  0  0
    6.6448    9.1729   10.1347 H   0  0  0  0  0  0  0  0  0  0  0  0
    8.1064    9.8828    9.4165 H   0  0  0  0  0  0  0  0  0  0  0  0
    7.2032    6.6874    9.1700 C   0  0  0  0  0  0  0  0  0  0  0  0
    9.0064    7.5037   10.2542 C   0  0  0  0  0  0  0  0  0  0  0  0
    8.2676    6.5653   11.2489 C   0  0  0  0  0  0  0  0  0  0  0  0
    9.3900    8.4057   10.7291 H   0  0  0  0  0  0  0  0  0  0  0  0
    9.8268    6.9503    9.7940 H   0  0  0  0  0  0  0  0  0  0  0  0
    6.9368    6.3625   10.6319 N   0  0  0  0  0  0  0  0  0  0  0  0
    8.1672    6.9952   12.2450 H   0  0  0  0  0  0  0  0  0  0  0  0
    8.7810    5.6034   11.3122 H   0  0  0  0  0  0  0  0  0  0  0  0
    7.7468    5.8322    8.7558 H   0  0  0  0  0  0  0  0  0  0  0  0
    6.2789    6.8643    8.6260 H   0  0  0  0  0  0  0  0  0  0  0  0
    6.2992    5.0545   10.8680 C   0  0  0  0  0  0  0  0  0  0  0  0
    4.8366    5.0546   10.4341 C   0  0  0  0  0  0  0  0  0  0  0  0
    6.3798    4.8272   11.9319 H   0  0  0  0  0  0  0  0  0  0  0  0
    6.8517    4.2986   10.3011 H   0  0  0  0  0  0  0  0  0  0  0  0
    3.9626    6.0984   11.1370 C   0  0  0  0  0  0  0  0  0  0  0  0
    4.4446    4.0613   10.6502 H   0  0  0  0  0  0  0  0  0  0  0  0
    4.7769    5.1852    9.3538 H   0  0  0  0  0  0  0  0  0  0  0  0
    3.9359    5.9381   12.6537 C   0  0  0  0  0  0  0  0  0  0  0  0
    2.9462    5.9859   10.7574 H   0  0  0  0  0  0  0  0  0  0  0  0
    4.2764    7.1166   10.8783 H   0  0  0  0  0  0  0  0  0  0  0  0
    3.6636    4.9190   12.9136 H   0  0  0  0  0  0  0  0  0  0  0  0
    3.2007    6.6091   13.0913 H   0  0  0  0  0  0  0  0  0  0  0  0
    4.9001    6.1589   13.1061 H   0  0  0  0  0  0  0  0  0  0  0  0
    6.2943    7.0782   10.9865 H   0  0  0  0  0  0  0  0  0  0  0  0
  1  3  1  0  0  0  0
  1  4  1  0  0  0  0
  1  5  1  0  0  0  0
  2  6  1  0  0  0  0
  2  7  1  0  0  0  0
  2  8  1  0  0  0  0
  1  9  1  0  0  0  0
  2 10  1  0  0  0  0
  9 11  1  0  0  0  0
 10 11  1  0  0  0  0
  9 12  2  0  0  0  0
  9 13  2  0  0  0  0
 10 14  2  0  0  0  0
 10 15  2  0  0  0  0
 16 18  1  0  0  0  0
 16 19  1  0  0  0  0
 16 20  1  0  0  0  0
 17 21  1  0  0  0  0
 17 22  1  0  0  0  0
 17 23  1  0  0  0  0
 16 24  1  0  0  0  0
 17 25  1  0  0  0  0
 24 26  1  0  0  0  0
 25 26  1  0  0  0  0
 24 27  2  0  0  0  0
 24 28  2  0  0  0  0
 25 29  2  0  0  0  0
 25 30  2  0  0  0  0
 31 32  2  0  0  0  0
 31 33  1  0  0  0  0
 31 34  1  0  0  0  0
 32 35  1  0  0  0  0
 32 36  1  0  0  0  0
 35 37  4  0  0  0  0
 37 38  4  0  0  0  0
 38 39  4  0  0  0  0
 35 40  4  0  0  0  0
 39 41  4  0  0  0  0
 40 41  4  0  0  0  0
 40 42  1  0  0  0  0
 41 43  1  0  0  0  0
 38 44  1  0  0  0  0
 37 45  1  0  0  0  0
 39 46  1  0  0  0  0
 46 47  1  0  0  0  0
 46 48  1  0  0  0  0
 46 49  1  0  0  0  0
 47 50  1  0  0  0  0
 47 51  1  0  0  0  0
 51 52  1  0  0  0  0
 51 53  1  0  0  0  0
 51 54  1  0  0  0  0
 50 55  1  0  0  0  0
 52 55  1  0  0  0  0
 52 56  1  0  0  0  0
 52 57  1  0  0  0  0
 50 58  1  0  0  0  0
 50 59  1  0  0  0  0
 55 60  1  0  0  0  0
 60 61  1  0  0  0  0
 60 62  1  0  0  0  0
 60 63  1  0  0  0  0
 61 64  1  0  0  0  0
 61 65  1  0  0  0  0
 61 66  1  0  0  0  0
 64 67  1  0  0  0  0
 64 68  1  0  0  0  0
 64 69  1  0  0  0  0
 67 70  1  0  0  0  0
 67 71  1  0  0  0  0
 67 72  1  0  0  0  0
 55 73  1  0  0  0  0
 74 75  2  0  0  0  0
 74 76  1  0  0  0  0
 74 77  1  0  0  0  0
 75 78  1  0  0  0  0
 75 79  1  0  0  0  0
 78 80  4  0  0  0  0
 80 81  4  0  0  0  0
 81 82  4  0  0  0  0
 78 83  4  0  0  0  0
 82 84  4  0  0  0  0
 83 84  4  0  0  0  0
 83 85  1  0  0  0  0
 84 86  1  0  0  0  0
 81 87  1  0  0  0  0
 80 88  1  0  0  0  0
 82 89  1  0  0  0  0
 89 90  1  0  0  0  0
 89 91  1  0  0  0  0
 89 92  1  0  0  0  0
 90 93  1  0  0  0  0
 90 94  1  0  0  0  0
 94 95  1  0  0  0  0
 94 96  1  0  0  0  0
 94 97  1  0  0  0  0
 93 98  1  0  0  0  0
 95 98  1  0  0  0  0
 95 99  1  0  0  0  0
 95100  1  0  0  0  0
 93101  1  0  0  0  0
 93102  1  0  0  0  0
 98103  1  0  0  0  0
103104  1  0  0  0  0
103105  1  0  0  0  0
103106  1  0  0  0  0
104107  1  0  0  0  0
104108  1  0  0  0  0
104109  1  0  0  0  0
107110  1  0  0  0  0
107111  1  0  0  0  0
107112  1  0  0  0  0
110113  1  0  0  0  0
110114  1  0  0  0  0
110115  1  0  0  0  0
 98116  1  0  0  0  0
M  END
