 xtb: 6.7.1 (edcfbbe)
          10212513483D

116116  0     0  0            999 V2000
    5.3546   11.4326    4.8291 C   0  0  0  0  0  0  0  0  0  0  0  0
    1.6831    9.8583    3.9148 C   0  0  0  0  0  0  0  0  0  0  0  0
    6.5284   11.6582    4.2287 F   0  0  0  0  0  0  0  0  0  0  0  0
    4.3974   11.9794    4.0848 F   0  0  0  0  0  0  0  0  0  0  0  0
    5.3794   12.0784    5.9962 F   0  0  0  0  0  0  0  0  0  0  0  0
    1.2902   10.9598    4.5548 F   0  0  0  0  0  0  0  0  0  0  0  0
    2.4900   10.2209    2.9248 F   0  0  0  0  0  0  0  0  0  0  0  0
    0.5975    9.2952    3.3771 F   0  0  0  0  0  0  0  0  0  0  0  0
    5.0950    9.5811    5.0545 S   0  0  0  0  0  0  0  0  0  0  0  0
    2.5340    8.6801    5.1058 S   0  0  0  0  0  0  0  0  0  0  0  0
    3.6746    9.5599    5.7320 N   0  0  0  0  0  0  0  0  0  0  0  0
    5.1725    9.0317    3.7435 O   0  0  0  0  0  0  0  0  0  0  0  0
    6.1545    9.2362    5.9676 O   0  0  0  0  0  0  0  0  0  0  0  0
    2.9388    7.5554    4.3255 O   0  0  0  0  0  0  0  0  0  0  0  0
    1.5154    8.3899    6.0834 O   0  0  0  0  0  0  0  0  0  0  0  0
   10.5756    4.1146    9.5876 C   0  0  0  0  0  0  0  0  0  0  0  0
    7.3540    3.0015    8.0425 C   0  0  0  0  0  0  0  0  0  0  0  0
   11.7913    4.2577   10.1162 F   0  0  0  0  0  0  0  0  0  0  0  0
   10.1909    2.8538    9.7674 F   0  0  0  0  0  0  0  0  0  0  0  0
   10.7103    4.3129    8.2641 F   0  0  0  0  0  0  0  0  0  0  0  0
    8.5163    2.9240    7.3904 F   0  0  0  0  0  0  0  0  0  0  0  0
    7.2977    2.0064    8.9211 F   0  0  0  0  0  0  0  0  0  0  0  0
    6.3848    2.7936    7.1371 F   0  0  0  0  0  0  0  0  0  0  0  0
    9.3322    5.3785   10.2779 S   0  0  0  0  0  0  0  0  0  0  0  0
    7.1120    4.7027    8.8385 S   0  0  0  0  0  0  0  0  0  0  0  0
    7.9724    4.6107   10.1358 N   0  0  0  0  0  0  0  0  0  0  0  0
    9.7217    5.5555   11.6311 O   0  0  0  0  0  0  0  0  0  0  0  0
    9.5353    6.4757    9.3715 O   0  0  0  0  0  0  0  0  0  0  0  0
    5.6998    4.6785    9.0970 O   0  0  0  0  0  0  0  0  0  0  0  0
    7.5966    5.5993    7.8297 O   0  0  0  0  0  0  0  0  0  0  0  0
    4.8957   10.6879    8.7999 C   0  0  0  0  0  0  0  0  0  0  0  0
    4.5850    9.9942    9.8879 C   0  0  0  0  0  0  0  0  0  0  0  0
    5.6895   11.4146    8.8081 H   0  0  0  0  0  0  0  0  0  0  0  0
    4.3960   10.5376    7.8588 H   0  0  0  0  0  0  0  0  0  0  0  0
    3.5225    8.9988    9.9581 C   0  0  0  0  0  0  0  0  0  0  0  0
    5.1499   10.1325   10.8010 H   0  0  0  0  0  0  0  0  0  0  0  0
    2.4502    9.0024    9.0655 C   0  0  0  0  0  0  0  0  0  0  0  0
    1.4337    8.0755    9.1795 C   0  0  0  0  0  0  0  0  0  0  0  0
    1.4646    7.1011   10.1736 C   0  0  0  0  0  0  0  0  0  0  0  0
    3.5464    8.0268   10.9594 C   0  0  0  0  0  0  0  0  0  0  0  0
    2.5426    7.0830   11.0535 C   0  0  0  0  0  0  0  0  0  0  0  0
    4.3620    8.0103   11.6668 H   0  0  0  0  0  0  0  0  0  0  0  0
    2.5804    6.3423   11.8408 H   0  0  0  0  0  0  0  0  0  0  0  0
    0.6074    8.1307    8.4873 H   0  0  0  0  0  0  0  0  0  0  0  0
    2.3970    9.7383    8.2806 H   0  0  0  0  0  0  0  0  0  0  0  0
    0.3433    6.1037   10.3240 C   0  0  0  0  0  0  0  0  0  0  0  0
    0.2993    5.0278    9.3338 N   0  0  0  0  0  0  0  0  0  0  0  0
   -0.6217    6.6114   10.2814 H   0  0  0  0  0  0  0  0  0  0  0  0
    0.4189    5.6179   11.3017 H   0  0  0  0  0  0  0  0  0  0  0  0
    1.5277    4.3868    9.0402 C   0  0  0  0  0  0  0  0  0  0  0  0
   -0.3034    5.3026    8.0424 C   0  0  0  0  0  0  0  0  0  0  0  0
    0.8561    5.4266    7.0238 C   0  0  0  0  0  0  0  0  0  0  0  0
   -0.9121    6.2029    8.0808 H   0  0  0  0  0  0  0  0  0  0  0  0
   -0.9519    4.4614    7.7772 H   0  0  0  0  0  0  0  0  0  0  0  0
    2.0704    5.0542    7.7914 N   0  0  0  0  0  0  0  0  0  0  0  0
    0.9535    6.4390    6.6262 H   0  0  0  0  0  0  0  0  0  0  0  0
    0.7238    4.7280    6.1985 H   0  0  0  0  0  0  0  0  0  0  0  0
    1.3501    3.3370    8.7746 H   0  0  0  0  0  0  0  0  0  0  0  0
    2.2486    4.4480    9.8548 H   0  0  0  0  0  0  0  0  0  0  0  0
    3.0506    4.2170    7.0684 C   0  0  0  0  0  0  0  0  0  0  0  0
    3.6187    4.9103    5.8342 C   0  0  0  0  0  0  0  0  0  0  0  0
    2.5433    3.2895    6.7886 H   0  0  0  0  0  0  0  0  0  0  0  0
    3.8687    3.9865    7.7567 H   0  0  0  0  0  0  0  0  0  0  0  0
    4.7501    5.8859    6.1559 C   0  0  0  0  0  0  0  0  0  0  0  0
    2.8427    5.4510    5.2930 H   0  0  0  0  0  0  0  0  0  0  0  0
    4.0098    4.1410    5.1681 H   0  0  0  0  0  0  0  0  0  0  0  0
    4.4075    6.8909    7.2504 C   0  0  0  0  0  0  0  0  0  0  0  0
    4.9772    6.4310    5.2397 H   0  0  0  0  0  0  0  0  0  0  0  0
    5.6357    5.3329    6.4670 H   0  0  0  0  0  0  0  0  0  0  0  0
    5.1534    7.6779    7.2561 H   0  0  0  0  0  0  0  0  0  0  0  0
    4.4350    6.4215    8.2325 H   0  0  0  0  0  0  0  0  0  0  0  0
    3.4553    7.3821    7.0591 H   0  0  0  0  0  0  0  0  0  0  0  0
    2.5527    5.9231    8.0608 H   0  0  0  0  0  0  0  0  0  0  0  0
    6.0634    5.6657   12.3473 C   0  0  0  0  0  0  0  0  0  0  0  0
    6.9628    6.6337   12.4771 C   0  0  0  0  0  0  0  0  0  0  0  0
    5.7968    5.0440   13.1860 H   0  0  0  0  0  0  0  0  0  0  0  0
    5.5919    5.4281   11.4105 H   0  0  0  0  0  0  0  0  0  0  0  0
    7.4246    7.5329   11.4280 C   0  0  0  0  0  0  0  0  0  0  0  0
    7.4289    6.7952   13.4407 H   0  0  0  0  0  0  0  0  0  0  0  0
    8.4706    8.4131   11.7084 C   0  0  0  0  0  0  0  0  0  0  0  0
    8.9401    9.2887   10.7511 C   0  0  0  0  0  0  0  0  0  0  0  0
    8.3764    9.3192    9.4805 C   0  0  0  0  0  0  0  0  0  0  0  0
    6.8612    7.5724   10.1522 C   0  0  0  0  0  0  0  0  0  0  0  0
    7.3306    8.4500    9.1960 C   0  0  0  0  0  0  0  0  0  0  0  0
    6.0443    6.9171    9.9038 H   0  0  0  0  0  0  0  0  0  0  0  0
    6.8688    8.4783    8.2209 H   0  0  0  0  0  0  0  0  0  0  0  0
    9.7471    9.9663   10.9965 H   0  0  0  0  0  0  0  0  0  0  0  0
    8.9245    8.3964   12.6884 H   0  0  0  0  0  0  0  0  0  0  0  0
    8.8913   10.2668    8.4265 C   0  0  0  0  0  0  0  0  0  0  0  0
    9.8034    9.6902    7.4424 N   0  0  0  0  0  0  0  0  0  0  0  0
    9.4355   11.0873    8.9037 H   0  0  0  0  0  0  0  0  0  0  0  0
    8.0549   10.6870    7.8651 H   0  0  0  0  0  0  0  0  0  0  0  0
    9.2352    8.8922    6.4019 C   0  0  0  0  0  0  0  0  0  0  0  0
   10.9386    8.9471    7.9854 C   0  0  0  0  0  0  0  0  0  0  0  0
   10.9744    7.6265    7.2081 C   0  0  0  0  0  0  0  0  0  0  0  0
   10.7937    8.7450    9.0490 H   0  0  0  0  0  0  0  0  0  0  0  0
   11.8616    9.5179    7.8467 H   0  0  0  0  0  0  0  0  0  0  0  0
    9.5911    7.4701    6.7186 N   0  0  0  0  0  0  0  0  0  0  0  0
   11.2593    6.7881    7.8360 H   0  0  0  0  0  0  0  0  0  0  0  0
   11.6386    7.6961    6.3431 H   0  0  0  0  0  0  0  0  0  0  0  0
    9.7435    9.1223    5.4539 H   0  0  0  0  0  0  0  0  0  0  0  0
    8.1613    9.0422    6.2838 H   0  0  0  0  0  0  0  0  0  0  0  0
    9.4633    6.5171    5.5986 C   0  0  0  0  0  0  0  0  0  0  0  0
    8.0650    6.5259    4.9729 C   0  0  0  0  0  0  0  0  0  0  0  0
    9.7004    5.5300    5.9974 H   0  0  0  0  0  0  0  0  0  0  0  0
   10.2116    6.7863    4.8477 H   0  0  0  0  0  0  0  0  0  0  0  0
    7.9862    7.2785    3.6422 C   0  0  0  0  0  0  0  0  0  0  0  0
    7.3653    6.9638    5.6806 H   0  0  0  0  0  0  0  0  0  0  0  0
    7.7453    5.4970    4.8101 H   0  0  0  0  0  0  0  0  0  0  0  0
    8.5893    6.4830    2.4904 C   0  0  0  0  0  0  0  0  0  0  0  0
    8.4887    8.2429    3.7246 H   0  0  0  0  0  0  0  0  0  0  0  0
    6.9401    7.4913    3.4235 H   0  0  0  0  0  0  0  0  0  0  0  0
    9.6379    6.2517    2.6681 H   0  0  0  0  0  0  0  0  0  0  0  0
    8.5174    7.0478    1.5646 H   0  0  0  0  0  0  0  0  0  0  0  0
    8.0530    5.5464    2.3575 H   0  0  0  0  0  0  0  0  0  0  0  0
    9.0120    7.1197    7.5069 H   0  0  0  0  0  0  0  0  0  0  0  0
  1  3  1  0  0  0  0
  1  4  1  0  0  0  0
  1  5  1  0  0  0  0
  2  6  1  0  0  0  0
  2  7  1  0  0  0  0
  2  8  1  0  0  0  0
  1  9  1  0  0  0  0
  2 10  1  0  0  0  0
  9 11  1  0  0  0  0
 10 11  1  0  0  0  0
  9 12  2  0  0  0  0
  9 13  2  0  0  0  0
 10 14  2  0  0  0  0
 10 15  2  0  0  0  0
 16 18  1  0  0  0  0
 16 19  1  0  0  0  0
 16 20  1  0  0  0  0
 17 21  1  0  0  0  0
 17 22  1  0  0  0  0
 17 23  1  0  0  0  0
 16 24  1  0  0  0  0
 17 25  1  0  0  0  0
 24 26  1  0  0  0  0
 25 26  1  0  0  0  0
 24 27  2  0  0  0  0
 24 28  2  0  0  0  0
 25 29  2  0  0  0  0
 25 30  2  0  0  0  0
 31 32  2  0  0  0  0
 31 33  1  0  0  0  0
 31 34  1  0  0  0  0
 32 35  1  0  0  0  0
 32 36  1  0  0  0  0
 35 37  4  0  0  0  0
 37 38  4  0  0  0  0
 38 39  4  0  0  0  0
 35 40  4  0  0  0  0
 39 41  4  0  0  0  0
 40 41  4  0  0  0  0
 40 42  1  0  0  0  0
 41 43  1  0  0  0  0
 38 44  1  0  0  0  0
 37 45  1  0  0  0  0
 39 46  1  0  0  0  0
 46 47  1  0  0  0  0
 46 48  1  0  0  0  0
 46 49  1  0  0  0  0
 47 50  1  0  0  0  0
 47 51  1  0  0  0  0
 51 52  1  0  0  0  0
 51 53  1  0  0  0  0
 51 54  1  0  0  0  0
 50 55  1  0  0  0  0
 52 55  1  0  0  0  0
 52 56  1  0  0  0  0
 52 57  1  0  0  0  0
 50 58  1  0  0  0  0
 50 59  1  0  0  0  0
 55 60  1  0  0  0  0
 60 61  1  0  0  0  0
 60 62  1  0  0  0  0
 60 63  1  0  0  0  0
 61 64  1  0  0  0  0
 61 65  1  0  0  0  0
 61 66  1  0  0  0  0
 64 67  1  0  0  0  0
 64 68  1  0  0  0  0
 64 69  1  0  0  0  0
 67 70  1  0  0  0  0
 67 71  1  0  0  0  0
 67 72  1  0  0  0  0
 55 73  1  0  0  0  0
 74 75  2  0  0  0  0
 74 76  1  0  0  0  0
 74 77  1  0  0  0  0
 75 78  1  0  0  0  0
 75 79  1  0  0  0  0
 78 80  4  0  0  0  0
 80 81  4  0  0  0  0
 81 82  4  0  0  0  0
 78 83  4  0  0  0  0
 82 84  4  0  0  0  0
 83 84  4  0  0  0  0
 83 85  1  0  0  0  0
 84 86  1  0  0  0  0
 81 87  1  0  0  0  0
 80 88  1  0  0  0  0
 82 89  1  0  0  0  0
 89 90  1  0  0  0  0
 89 91  1  0  0  0  0
 89 92  1  0  0  0  0
 90 93  1  0  0  0  0
 90 94  1  0  0  0  0
 94 95  1  0  0  0  0
 94 96  1  0  0  0  0
 94 97  1  0  0  0  0
 93 98  1  0  0  0  0
 95 98  1  0  0  0  0
 95 99  1  0  0  0  0
 95100  1  0  0  0  0
 93101  1  0  0  0  0
 93102  1  0  0  0  0
 98103  1  0  0  0  0
103104  1  0  0  0  0
103105  1  0  0  0  0
103106  1  0  0  0  0
104107  1  0  0  0  0
104108  1  0  0  0  0
104109  1  0  0  0  0
107110  1  0  0  0  0
107111  1  0  0  0  0
107112  1  0  0  0  0
110113  1  0  0  0  0
110114  1  0  0  0  0
110115  1  0  0  0  0
 98116  1  0  0  0  0
M  END
