 xtb: 6.7.1 (edcfbbe)
          10212513553D

116116  0     0  0            999 V2000
    6.5361    1.6075    4.7196 C   0  0  0  0  0  0  0  0  0  0  0  0
    4.0969    5.1379    3.9266 C   0  0  0  0  0  0  0  0  0  0  0  0
    5.2394    1.4156    4.9402 F   0  0  0  0  0  0  0  0  0  0  0  0
    6.9734    0.6226    3.9359 F   0  0  0  0  0  0  0  0  0  0  0  0
    7.1661    1.5001    5.8936 F   0  0  0  0  0  0  0  0  0  0  0  0
    3.0933    5.7597    4.5428 F   0  0  0  0  0  0  0  0  0  0  0  0
    4.0811    5.5161    2.6555 F   0  0  0  0  0  0  0  0  0  0  0  0
    3.8408    3.8341    3.9961 F   0  0  0  0  0  0  0  0  0  0  0  0
    6.8726    3.3067    3.9978 S   0  0  0  0  0  0  0  0  0  0  0  0
    5.7451    5.5582    4.7458 S   0  0  0  0  0  0  0  0  0  0  0  0
    6.3397    4.1795    5.2056 N   0  0  0  0  0  0  0  0  0  0  0  0
    8.3045    3.3468    3.8761 O   0  0  0  0  0  0  0  0  0  0  0  0
    6.1312    3.4432    2.7902 O   0  0  0  0  0  0  0  0  0  0  0  0
    5.4728    6.4108    5.8537 O   0  0  0  0  0  0  0  0  0  0  0  0
    6.5375    6.1582    3.6901 O   0  0  0  0  0  0  0  0  0  0  0  0
    5.3153    9.0441    9.4807 C   0  0  0  0  0  0  0  0  0  0  0  0
    3.5580    6.9714   13.3620 C   0  0  0  0  0  0  0  0  0  0  0  0
    6.3040    9.1495    8.5785 F   0  0  0  0  0  0  0  0  0  0  0  0
    4.1864    8.8498    8.8139 F   0  0  0  0  0  0  0  0  0  0  0  0
    5.2683   10.2005   10.1170 F   0  0  0  0  0  0  0  0  0  0  0  0
    4.5429    7.6315   13.9608 F   0  0  0  0  0  0  0  0  0  0  0  0
    2.4621    7.1083   14.1014 F   0  0  0  0  0  0  0  0  0  0  0  0
    3.8950    5.6655   13.3812 F   0  0  0  0  0  0  0  0  0  0  0  0
    5.7445    7.5833   10.5814 S   0  0  0  0  0  0  0  0  0  0  0  0
    3.2798    7.4609   11.5542 S   0  0  0  0  0  0  0  0  0  0  0  0
    4.4782    6.6950   10.8479 N   0  0  0  0  0  0  0  0  0  0  0  0
    6.6298    6.7834    9.7528 O   0  0  0  0  0  0  0  0  0  0  0  0
    6.3632    8.1065   11.7594 O   0  0  0  0  0  0  0  0  0  0  0  0
    3.4538    8.8727   11.4668 O   0  0  0  0  0  0  0  0  0  0  0  0
    2.0251    6.8664   11.2467 O   0  0  0  0  0  0  0  0  0  0  0  0
    1.9430    8.5487    5.1695 C   0  0  0  0  0  0  0  0  0  0  0  0
    2.7836    8.5667    4.1424 C   0  0  0  0  0  0  0  0  0  0  0  0
    0.9053    8.2981    5.0330 H   0  0  0  0  0  0  0  0  0  0  0  0
    2.2468    8.7644    6.1780 H   0  0  0  0  0  0  0  0  0  0  0  0
    4.2012    8.8998    4.1895 C   0  0  0  0  0  0  0  0  0  0  0  0
    2.4110    8.3272    3.1541 H   0  0  0  0  0  0  0  0  0  0  0  0
    4.8483    9.2770    5.3663 C   0  0  0  0  0  0  0  0  0  0  0  0
    6.1652    9.6829    5.3477 C   0  0  0  0  0  0  0  0  0  0  0  0
    6.8850    9.7254    4.1587 C   0  0  0  0  0  0  0  0  0  0  0  0
    4.9439    8.8893    3.0083 C   0  0  0  0  0  0  0  0  0  0  0  0
    6.2617    9.3007    2.9915 C   0  0  0  0  0  0  0  0  0  0  0  0
    4.4731    8.5769    2.0872 H   0  0  0  0  0  0  0  0  0  0  0  0
    6.7944    9.3292    2.0501 H   0  0  0  0  0  0  0  0  0  0  0  0
    6.6353   10.0007    6.2663 H   0  0  0  0  0  0  0  0  0  0  0  0
    4.3104    9.2705    6.2982 H   0  0  0  0  0  0  0  0  0  0  0  0
    8.2804   10.2979    4.1372 C   0  0  0  0  0  0  0  0  0  0  0  0
    9.3990    9.3704    4.2814 N   0  0  0  0  0  0  0  0  0  0  0  0
    8.3867   11.0242    4.9460 H   0  0  0  0  0  0  0  0  0  0  0  0
    8.4463   10.8262    3.1938 H   0  0  0  0  0  0  0  0  0  0  0  0
    9.5853    8.4020    3.2614 C   0  0  0  0  0  0  0  0  0  0  0  0
    9.5119    8.6290    5.5197 C   0  0  0  0  0  0  0  0  0  0  0  0
    8.9093    7.2404    5.2320 C   0  0  0  0  0  0  0  0  0  0  0  0
    9.0002    9.1345    6.3342 H   0  0  0  0  0  0  0  0  0  0  0  0
   10.5745    8.5381    5.7702 H   0  0  0  0  0  0  0  0  0  0  0  0
    9.0297    7.0823    3.7564 N   0  0  0  0  0  0  0  0  0  0  0  0
    7.8551    7.1991    5.5115 H   0  0  0  0  0  0  0  0  0  0  0  0
    9.4433    6.4427    5.7457 H   0  0  0  0  0  0  0  0  0  0  0  0
   10.6618    8.2412    3.1156 H   0  0  0  0  0  0  0  0  0  0  0  0
    9.1227    8.6959    2.3212 H   0  0  0  0  0  0  0  0  0  0  0  0
    9.8606    5.9315    3.3438 C   0  0  0  0  0  0  0  0  0  0  0  0
   10.0386    5.7850    1.8330 C   0  0  0  0  0  0  0  0  0  0  0  0
    9.3861    5.0219    3.7135 H   0  0  0  0  0  0  0  0  0  0  0  0
   10.8398    6.0448    3.8198 H   0  0  0  0  0  0  0  0  0  0  0  0
    8.7880    5.3414    1.0659 C   0  0  0  0  0  0  0  0  0  0  0  0
   10.7989    5.0118    1.7069 H   0  0  0  0  0  0  0  0  0  0  0  0
   10.4349    6.7018    1.3906 H   0  0  0  0  0  0  0  0  0  0  0  0
    7.8067    6.4635    0.7388 C   0  0  0  0  0  0  0  0  0  0  0  0
    8.2694    4.5676    1.6317 H   0  0  0  0  0  0  0  0  0  0  0  0
    9.1242    4.8972    0.1266 H   0  0  0  0  0  0  0  0  0  0  0  0
    7.2127    6.7420    1.6041 H   0  0  0  0  0  0  0  0  0  0  0  0
    7.1103    6.1195   -0.0211 H   0  0  0  0  0  0  0  0  0  0  0  0
    8.3275    7.3365    0.3448 H   0  0  0  0  0  0  0  0  0  0  0  0
    8.0630    6.8957    3.4162 H   0  0  0  0  0  0  0  0  0  0  0  0
   11.4147    2.3719    4.4410 C   0  0  0  0  0  0  0  0  0  0  0  0
   11.9263    2.6575    5.6331 C   0  0  0  0  0  0  0  0  0  0  0  0
   11.9975    1.8416    3.7063 H   0  0  0  0  0  0  0  0  0  0  0  0
   10.4111    2.6312    4.1521 H   0  0  0  0  0  0  0  0  0  0  0  0
   11.2555    3.3591    6.7211 C   0  0  0  0  0  0  0  0  0  0  0  0
   12.9418    2.3522    5.8594 H   0  0  0  0  0  0  0  0  0  0  0  0
    9.9585    3.8646    6.6137 C   0  0  0  0  0  0  0  0  0  0  0  0
    9.3706    4.5390    7.6682 C   0  0  0  0  0  0  0  0  0  0  0  0
   10.0535    4.7166    8.8671 C   0  0  0  0  0  0  0  0  0  0  0  0
   11.9332    3.5422    7.9289 C   0  0  0  0  0  0  0  0  0  0  0  0
   11.3390    4.2015    8.9852 C   0  0  0  0  0  0  0  0  0  0  0  0
   12.9363    3.1551    8.0374 H   0  0  0  0  0  0  0  0  0  0  0  0
   11.8724    4.3235    9.9160 H   0  0  0  0  0  0  0  0  0  0  0  0
    8.3696    4.9342    7.5485 H   0  0  0  0  0  0  0  0  0  0  0  0
    9.3926    3.7158    5.7098 H   0  0  0  0  0  0  0  0  0  0  0  0
    9.4101    5.4163   10.0307 C   0  0  0  0  0  0  0  0  0  0  0  0
    8.8913    4.4211   10.9797 N   0  0  0  0  0  0  0  0  0  0  0  0
    8.6286    6.1007    9.6829 H   0  0  0  0  0  0  0  0  0  0  0  0
   10.1680    5.9872   10.5713 H   0  0  0  0  0  0  0  0  0  0  0  0
    7.8215    3.6214   10.4850 C   0  0  0  0  0  0  0  0  0  0  0  0
    8.4085    4.9795   12.2385 C   0  0  0  0  0  0  0  0  0  0  0  0
    6.8704    4.8370   12.2245 C   0  0  0  0  0  0  0  0  0  0  0  0
    8.6994    6.0255   12.3305 H   0  0  0  0  0  0  0  0  0  0  0  0
    8.8430    4.4181   13.0712 H   0  0  0  0  0  0  0  0  0  0  0  0
    6.5568    4.3431   10.8664 N   0  0  0  0  0  0  0  0  0  0  0  0
    6.3716    5.7870   12.4043 H   0  0  0  0  0  0  0  0  0  0  0  0
    6.5296    4.1010   12.9550 H   0  0  0  0  0  0  0  0  0  0  0  0
    7.8076    2.6566   11.0089 H   0  0  0  0  0  0  0  0  0  0  0  0
    7.8929    3.4617    9.4101 H   0  0  0  0  0  0  0  0  0  0  0  0
    5.3157    3.5552   10.7992 C   0  0  0  0  0  0  0  0  0  0  0  0
    4.8880    3.2174    9.3749 C   0  0  0  0  0  0  0  0  0  0  0  0
    4.5295    4.1509   11.2685 H   0  0  0  0  0  0  0  0  0  0  0  0
    5.4737    2.6406   11.3803 H   0  0  0  0  0  0  0  0  0  0  0  0
    4.3710    4.4331    8.6039 C   0  0  0  0  0  0  0  0  0  0  0  0
    4.0767    2.4901    9.4533 H   0  0  0  0  0  0  0  0  0  0  0  0
    5.6995    2.7395    8.8233 H   0  0  0  0  0  0  0  0  0  0  0  0
    3.6322    4.0047    7.3424 C   0  0  0  0  0  0  0  0  0  0  0  0
    5.1909    5.0929    8.3174 H   0  0  0  0  0  0  0  0  0  0  0  0
    3.6987    5.0049    9.2456 H   0  0  0  0  0  0  0  0  0  0  0  0
    2.8080    3.3369    7.5847 H   0  0  0  0  0  0  0  0  0  0  0  0
    4.3086    3.4962    6.6584 H   0  0  0  0  0  0  0  0  0  0  0  0
    3.2320    4.8808    6.8429 H   0  0  0  0  0  0  0  0  0  0  0  0
    6.4630    5.1918   10.2553 H   0  0  0  0  0  0  0  0  0  0  0  0
  1  3  1  0  0  0  0
  1  4  1  0  0  0  0
  1  5  1  0  0  0  0
  2  6  1  0  0  0  0
  2  7  1  0  0  0  0
  2  8  1  0  0  0  0
  1  9  1  0  0  0  0
  2 10  1  0  0  0  0
  9 11  1  0  0  0  0
 10 11  1  0  0  0  0
  9 12  2  0  0  0  0
  9 13  2  0  0  0  0
 10 14  2  0  0  0  0
 10 15  2  0  0  0  0
 16 18  1  0  0  0  0
 16 19  1  0  0  0  0
 16 20  1  0  0  0  0
 17 21  1  0  0  0  0
 17 22  1  0  0  0  0
 17 23  1  0  0  0  0
 16 24  1  0  0  0  0
 17 25  1  0  0  0  0
 24 26  1  0  0  0  0
 25 26  1  0  0  0  0
 24 27  2  0  0  0  0
 24 28  2  0  0  0  0
 25 29  2  0  0  0  0
 25 30  2  0  0  0  0
 31 32  2  0  0  0  0
 31 33  1  0  0  0  0
 31 34  1  0  0  0  0
 32 35  1  0  0  0  0
 32 36  1  0  0  0  0
 35 37  4  0  0  0  0
 37 38  4  0  0  0  0
 38 39  4  0  0  0  0
 35 40  4  0  0  0  0
 39 41  4  0  0  0  0
 40 41  4  0  0  0  0
 40 42  1  0  0  0  0
 41 43  1  0  0  0  0
 38 44  1  0  0  0  0
 37 45  1  0  0  0  0
 39 46  1  0  0  0  0
 46 47  1  0  0  0  0
 46 48  1  0  0  0  0
 46 49  1  0  0  0  0
 47 50  1  0  0  0  0
 47 51  1  0  0  0  0
 51 52  1  0  0  0  0
 51 53  1  0  0  0  0
 51 54  1  0  0  0  0
 50 55  1  0  0  0  0
 52 55  1  0  0  0  0
 52 56  1  0  0  0  0
 52 57  1  0  0  0  0
 50 58  1  0  0  0  0
 50 59  1  0  0  0  0
 55 60  1  0  0  0  0
 60 61  1  0  0  0  0
 60 62  1  0  0  0  0
 60 63  1  0  0  0  0
 61 64  1  0  0  0  0
 61 65  1  0  0  0  0
 61 66  1  0  0  0  0
 64 67  1  0  0  0  0
 64 68  1  0  0  0  0
 64 69  1  0  0  0  0
 67 70  1  0  0  0  0
 67 71  1  0  0  0  0
 67 72  1  0  0  0  0
 55 73  1  0  0  0  0
 74 75  2  0  0  0  0
 74 76  1  0  0  0  0
 74 77  1  0  0  0  0
 75 78  1  0  0  0  0
 75 79  1  0  0  0  0
 78 80  4  0  0  0  0
 80 81  4  0  0  0  0
 81 82  4  0  0  0  0
 78 83  4  0  0  0  0
 82 84  4  0  0  0  0
 83 84  4  0  0  0  0
 83 85  1  0  0  0  0
 84 86  1  0  0  0  0
 81 87  1  0  0  0  0
 80 88  1  0  0  0  0
 82 89  1  0  0  0  0
 89 90  1  0  0  0  0
 89 91  1  0  0  0  0
 89 92  1  0  0  0  0
 90 93  1  0  0  0  0
 90 94  1  0  0  0  0
 94 95  1  0  0  0  0
 94 96  1  0  0  0  0
 94 97  1  0  0  0  0
 93 98  1  0  0  0  0
 95 98  1  0  0  0  0
 95 99  1  0  0  0  0
 95100  1  0  0  0  0
 93101  1  0  0  0  0
 93102  1  0  0  0  0
 98103  1  0  0  0  0
103104  1  0  0  0  0
103105  1  0  0  0  0
103106  1  0  0  0  0
104107  1  0  0  0  0
104108  1  0  0  0  0
104109  1  0  0  0  0
107110  1  0  0  0  0
107111  1  0  0  0  0
107112  1  0  0  0  0
110113  1  0  0  0  0
110114  1  0  0  0  0
110115  1  0  0  0  0
 98116  1  0  0  0  0
M  END
