 xtb: 6.7.1 (edcfbbe)
          10212513533D

116116  0     0  0            999 V2000
    4.8667    0.5375    3.9856 C   0  0  0  0  0  0  0  0  0  0  0  0
    2.1414    3.9991    6.0136 C   0  0  0  0  0  0  0  0  0  0  0  0
    6.0105    0.2092    4.6024 F   0  0  0  0  0  0  0  0  0  0  0  0
    4.4740   -0.5088    3.2698 F   0  0  0  0  0  0  0  0  0  0  0  0
    5.1574    1.5254    3.1274 F   0  0  0  0  0  0  0  0  0  0  0  0
    3.0922    4.5729    6.7528 F   0  0  0  0  0  0  0  0  0  0  0  0
    1.1774    4.9090    5.8482 F   0  0  0  0  0  0  0  0  0  0  0  0
    1.6295    2.9898    6.7118 F   0  0  0  0  0  0  0  0  0  0  0  0
    3.5589    1.0584    5.2572 S   0  0  0  0  0  0  0  0  0  0  0  0
    2.8096    3.4090    4.3381 S   0  0  0  0  0  0  0  0  0  0  0  0
    2.5490    1.8685    4.3567 N   0  0  0  0  0  0  0  0  0  0  0  0
    3.0387   -0.1721    5.7392 O   0  0  0  0  0  0  0  0  0  0  0  0
    4.2885    1.8819    6.1857 O   0  0  0  0  0  0  0  0  0  0  0  0
    4.1940    3.8050    4.3313 O   0  0  0  0  0  0  0  0  0  0  0  0
    2.0109    4.0871    3.3594 O   0  0  0  0  0  0  0  0  0  0  0  0
    9.4665    3.1073    2.2820 C   0  0  0  0  0  0  0  0  0  0  0  0
   10.8121    7.0883    4.0281 C   0  0  0  0  0  0  0  0  0  0  0  0
    8.2812    3.1113    2.9141 F   0  0  0  0  0  0  0  0  0  0  0  0
    9.3382    2.2843    1.2397 F   0  0  0  0  0  0  0  0  0  0  0  0
   10.3679    2.5760    3.0995 F   0  0  0  0  0  0  0  0  0  0  0  0
   11.9375    6.4425    4.2800 F   0  0  0  0  0  0  0  0  0  0  0  0
   10.9334    7.7872    2.9040 F   0  0  0  0  0  0  0  0  0  0  0  0
   10.6386    7.9679    5.0260 F   0  0  0  0  0  0  0  0  0  0  0  0
    9.9015    4.8556    1.6788 S   0  0  0  0  0  0  0  0  0  0  0  0
    9.2939    5.9695    3.9729 S   0  0  0  0  0  0  0  0  0  0  0  0
    8.8851    5.7816    2.4675 N   0  0  0  0  0  0  0  0  0  0  0  0
   11.2525    5.0892    2.0604 O   0  0  0  0  0  0  0  0  0  0  0  0
    9.5469    4.8238    0.2966 O   0  0  0  0  0  0  0  0  0  0  0  0
    8.2768    6.7107    4.6570 O   0  0  0  0  0  0  0  0  0  0  0  0
    9.6934    4.7374    4.5982 O   0  0  0  0  0  0  0  0  0  0  0  0
    6.2433   12.0997    0.5950 C   0  0  0  0  0  0  0  0  0  0  0  0
    6.8417   10.9687    0.9492 C   0  0  0  0  0  0  0  0  0  0  0  0
    6.4711   13.0301    1.0874 H   0  0  0  0  0  0  0  0  0  0  0  0
    5.5196   12.1531   -0.2013 H   0  0  0  0  0  0  0  0  0  0  0  0
    6.6283    9.6527    0.3561 C   0  0  0  0  0  0  0  0  0  0  0  0
    7.5816   10.9876    1.7395 H   0  0  0  0  0  0  0  0  0  0  0  0
    7.5178    8.6187    0.6594 C   0  0  0  0  0  0  0  0  0  0  0  0
    7.3601    7.3545    0.1213 C   0  0  0  0  0  0  0  0  0  0  0  0
    6.2867    7.0767   -0.7260 C   0  0  0  0  0  0  0  0  0  0  0  0
    5.5716    9.3739   -0.5135 C   0  0  0  0  0  0  0  0  0  0  0  0
    5.4030    8.1078   -1.0403 C   0  0  0  0  0  0  0  0  0  0  0  0
    4.8708   10.1510   -0.7757 H   0  0  0  0  0  0  0  0  0  0  0  0
    4.5828    7.9203   -1.7201 H   0  0  0  0  0  0  0  0  0  0  0  0
    8.0803    6.5872    0.3578 H   0  0  0  0  0  0  0  0  0  0  0  0
    8.3540    8.8023    1.3173 H   0  0  0  0  0  0  0  0  0  0  0  0
    6.0469    5.6737   -1.2283 C   0  0  0  0  0  0  0  0  0  0  0  0
    5.3835    4.7859   -0.2666 N   0  0  0  0  0  0  0  0  0  0  0  0
    6.9935    5.2059   -1.4987 H   0  0  0  0  0  0  0  0  0  0  0  0
    5.4098    5.7039   -2.1175 H   0  0  0  0  0  0  0  0  0  0  0  0
    4.3210    5.3757    0.4652 C   0  0  0  0  0  0  0  0  0  0  0  0
    6.2266    4.1718    0.7554 C   0  0  0  0  0  0  0  0  0  0  0  0
    5.9449    4.9375    2.0712 C   0  0  0  0  0  0  0  0  0  0  0  0
    7.2756    4.2238    0.4676 H   0  0  0  0  0  0  0  0  0  0  0  0
    5.9400    3.1233    0.8645 H   0  0  0  0  0  0  0  0  0  0  0  0
    4.9918    5.9994    1.6717 N   0  0  0  0  0  0  0  0  0  0  0  0
    6.8493    5.3796    2.4877 H   0  0  0  0  0  0  0  0  0  0  0  0
    5.4635    4.3002    2.8134 H   0  0  0  0  0  0  0  0  0  0  0  0
    3.6385    4.6117    0.8541 H   0  0  0  0  0  0  0  0  0  0  0  0
    3.7719    6.1165   -0.1156 H   0  0  0  0  0  0  0  0  0  0  0  0
    4.0953    6.4802    2.7338 C   0  0  0  0  0  0  0  0  0  0  0  0
    3.4454    7.8085    2.3566 C   0  0  0  0  0  0  0  0  0  0  0  0
    4.6874    6.6006    3.6433 H   0  0  0  0  0  0  0  0  0  0  0  0
    3.3420    5.7119    2.9163 H   0  0  0  0  0  0  0  0  0  0  0  0
    2.3796    8.2105    3.3804 C   0  0  0  0  0  0  0  0  0  0  0  0
    2.9705    7.7342    1.3771 H   0  0  0  0  0  0  0  0  0  0  0  0
    4.2150    8.5835    2.3014 H   0  0  0  0  0  0  0  0  0  0  0  0
    1.0916    7.4089    3.2278 C   0  0  0  0  0  0  0  0  0  0  0  0
    2.1550    9.2712    3.2514 H   0  0  0  0  0  0  0  0  0  0  0  0
    2.7798    8.0758    4.3860 H   0  0  0  0  0  0  0  0  0  0  0  0
    0.6503    7.5844    2.2494 H   0  0  0  0  0  0  0  0  0  0  0  0
    0.3734    7.7135    3.9834 H   0  0  0  0  0  0  0  0  0  0  0  0
    1.2644    6.3427    3.3417 H   0  0  0  0  0  0  0  0  0  0  0  0
    5.5557    6.7875    1.3117 H   0  0  0  0  0  0  0  0  0  0  0  0
   10.0171    7.6784    9.9744 C   0  0  0  0  0  0  0  0  0  0  0  0
   10.0796    6.4433   10.4572 C   0  0  0  0  0  0  0  0  0  0  0  0
    9.9421    8.5296   10.6288 H   0  0  0  0  0  0  0  0  0  0  0  0
   10.0331    7.8907    8.9190 H   0  0  0  0  0  0  0  0  0  0  0  0
   10.1684    5.2218    9.6655 C   0  0  0  0  0  0  0  0  0  0  0  0
   10.0348    6.2882   11.5282 H   0  0  0  0  0  0  0  0  0  0  0  0
   10.5048    5.2253    8.3099 C   0  0  0  0  0  0  0  0  0  0  0  0
   10.5394    4.0499    7.5841 C   0  0  0  0  0  0  0  0  0  0  0  0
   10.2413    2.8271    8.1883 C   0  0  0  0  0  0  0  0  0  0  0  0
    9.9077    3.9913   10.2722 C   0  0  0  0  0  0  0  0  0  0  0  0
    9.9408    2.8151    9.5467 C   0  0  0  0  0  0  0  0  0  0  0  0
    9.6712    3.9597   11.3262 H   0  0  0  0  0  0  0  0  0  0  0  0
    9.7453    1.8770   10.0471 H   0  0  0  0  0  0  0  0  0  0  0  0
   10.8043    4.0859    6.5377 H   0  0  0  0  0  0  0  0  0  0  0  0
   10.7490    6.1522    7.8164 H   0  0  0  0  0  0  0  0  0  0  0  0
   10.2035    1.5634    7.3640 C   0  0  0  0  0  0  0  0  0  0  0  0
    8.9117    1.2674    6.7456 N   0  0  0  0  0  0  0  0  0  0  0  0
   10.4625    0.6992    7.9796 H   0  0  0  0  0  0  0  0  0  0  0  0
   10.9277    1.6327    6.5497 H   0  0  0  0  0  0  0  0  0  0  0  0
    8.4039    2.2571    5.8647 C   0  0  0  0  0  0  0  0  0  0  0  0
    7.8015    1.0036    7.6421 C   0  0  0  0  0  0  0  0  0  0  0  0
    7.0215    2.3382    7.7676 C   0  0  0  0  0  0  0  0  0  0  0  0
    8.1539    0.6299    8.6012 H   0  0  0  0  0  0  0  0  0  0  0  0
    7.1624    0.2468    7.1820 H   0  0  0  0  0  0  0  0  0  0  0  0
    7.6442    3.2214    6.7565 N   0  0  0  0  0  0  0  0  0  0  0  0
    7.1106    2.7762    8.7606 H   0  0  0  0  0  0  0  0  0  0  0  0
    5.9704    2.1981    7.5088 H   0  0  0  0  0  0  0  0  0  0  0  0
    7.6750    1.8169    5.1817 H   0  0  0  0  0  0  0  0  0  0  0  0
    9.1749    2.7912    5.3130 H   0  0  0  0  0  0  0  0  0  0  0  0
    6.7165    4.1306    6.0638 C   0  0  0  0  0  0  0  0  0  0  0  0
    6.1205    5.1581    7.0198 C   0  0  0  0  0  0  0  0  0  0  0  0
    5.9135    3.5459    5.6121 H   0  0  0  0  0  0  0  0  0  0  0  0
    7.2807    4.6425    5.2831 H   0  0  0  0  0  0  0  0  0  0  0  0
    7.1671    6.0498    7.6872 C   0  0  0  0  0  0  0  0  0  0  0  0
    5.5086    4.6594    7.7718 H   0  0  0  0  0  0  0  0  0  0  0  0
    5.4516    5.7809    6.4285 H   0  0  0  0  0  0  0  0  0  0  0  0
    6.5116    7.2055    8.4341 C   0  0  0  0  0  0  0  0  0  0  0  0
    7.8318    6.4463    6.9187 H   0  0  0  0  0  0  0  0  0  0  0  0
    7.7615    5.4760    8.4034 H   0  0  0  0  0  0  0  0  0  0  0  0
    7.2642    7.8019    8.9435 H   0  0  0  0  0  0  0  0  0  0  0  0
    5.8088    6.8322    9.1753 H   0  0  0  0  0  0  0  0  0  0  0  0
    5.9734    7.8461    7.7413 H   0  0  0  0  0  0  0  0  0  0  0  0
    8.3706    3.8032    7.2001 H   0  0  0  0  0  0  0  0  0  0  0  0
  1  3  1  0  0  0  0
  1  4  1  0  0  0  0
  1  5  1  0  0  0  0
  2  6  1  0  0  0  0
  2  7  1  0  0  0  0
  2  8  1  0  0  0  0
  1  9  1  0  0  0  0
  2 10  1  0  0  0  0
  9 11  1  0  0  0  0
 10 11  1  0  0  0  0
  9 12  2  0  0  0  0
  9 13  2  0  0  0  0
 10 14  2  0  0  0  0
 10 15  2  0  0  0  0
 16 18  1  0  0  0  0
 16 19  1  0  0  0  0
 16 20  1  0  0  0  0
 17 21  1  0  0  0  0
 17 22  1  0  0  0  0
 17 23  1  0  0  0  0
 16 24  1  0  0  0  0
 17 25  1  0  0  0  0
 24 26  1  0  0  0  0
 25 26  1  0  0  0  0
 24 27  2  0  0  0  0
 24 28  2  0  0  0  0
 25 29  2  0  0  0  0
 25 30  2  0  0  0  0
 31 32  2  0  0  0  0
 31 33  1  0  0  0  0
 31 34  1  0  0  0  0
 32 35  1  0  0  0  0
 32 36  1  0  0  0  0
 35 37  4  0  0  0  0
 37 38  4  0  0  0  0
 38 39  4  0  0  0  0
 35 40  4  0  0  0  0
 39 41  4  0  0  0  0
 40 41  4  0  0  0  0
 40 42  1  0  0  0  0
 41 43  1  0  0  0  0
 38 44  1  0  0  0  0
 37 45  1  0  0  0  0
 39 46  1  0  0  0  0
 46 47  1  0  0  0  0
 46 48  1  0  0  0  0
 46 49  1  0  0  0  0
 47 50  1  0  0  0  0
 47 51  1  0  0  0  0
 51 52  1  0  0  0  0
 51 53  1  0  0  0  0
 51 54  1  0  0  0  0
 50 55  1  0  0  0  0
 52 55  1  0  0  0  0
 52 56  1  0  0  0  0
 52 57  1  0  0  0  0
 50 58  1  0  0  0  0
 50 59  1  0  0  0  0
 55 60  1  0  0  0  0
 60 61  1  0  0  0  0
 60 62  1  0  0  0  0
 60 63  1  0  0  0  0
 61 64  1  0  0  0  0
 61 65  1  0  0  0  0
 61 66  1  0  0  0  0
 64 67  1  0  0  0  0
 64 68  1  0  0  0  0
 64 69  1  0  0  0  0
 67 70  1  0  0  0  0
 67 71  1  0  0  0  0
 67 72  1  0  0  0  0
 55 73  1  0  0  0  0
 74 75  2  0  0  0  0
 74 76  1  0  0  0  0
 74 77  1  0  0  0  0
 75 78  1  0  0  0  0
 75 79  1  0  0  0  0
 78 80  4  0  0  0  0
 80 81  4  0  0  0  0
 81 82  4  0  0  0  0
 78 83  4  0  0  0  0
 82 84  4  0  0  0  0
 83 84  4  0  0  0  0
 83 85  1  0  0  0  0
 84 86  1  0  0  0  0
 81 87  1  0  0  0  0
 80 88  1  0  0  0  0
 82 89  1  0  0  0  0
 89 90  1  0  0  0  0
 89 91  1  0  0  0  0
 89 92  1  0  0  0  0
 90 93  1  0  0  0  0
 90 94  1  0  0  0  0
 94 95  1  0  0  0  0
 94 96  1  0  0  0  0
 94 97  1  0  0  0  0
 93 98  1  0  0  0  0
 95 98  1  0  0  0  0
 95 99  1  0  0  0  0
 95100  1  0  0  0  0
 93101  1  0  0  0  0
 93102  1  0  0  0  0
 98103  1  0  0  0  0
103104  1  0  0  0  0
103105  1  0  0  0  0
103106  1  0  0  0  0
104107  1  0  0  0  0
104108  1  0  0  0  0
104109  1  0  0  0  0
107110  1  0  0  0  0
107111  1  0  0  0  0
107112  1  0  0  0  0
110113  1  0  0  0  0
110114  1  0  0  0  0
110115  1  0  0  0  0
 98116  1  0  0  0  0
M  END
