 xtb: 6.7.1 (edcfbbe)
          10212513323D

116116  0     0  0            999 V2000
   -0.1820    8.8815    9.7746 C   0  0  0  0  0  0  0  0  0  0  0  0
    2.2299    5.1552   10.6646 C   0  0  0  0  0  0  0  0  0  0  0  0
   -0.3839   10.1585   10.1132 F   0  0  0  0  0  0  0  0  0  0  0  0
   -0.3522    8.8101    8.4448 F   0  0  0  0  0  0  0  0  0  0  0  0
   -1.1087    8.1523   10.3658 F   0  0  0  0  0  0  0  0  0  0  0  0
    1.3379    5.0540   11.6312 F   0  0  0  0  0  0  0  0  0  0  0  0
    2.6092    3.9108   10.3387 F   0  0  0  0  0  0  0  0  0  0  0  0
    3.3124    5.7821   11.1099 F   0  0  0  0  0  0  0  0  0  0  0  0
    1.5919    8.4014   10.2113 S   0  0  0  0  0  0  0  0  0  0  0  0
    1.5303    5.9478    9.1030 S   0  0  0  0  0  0  0  0  0  0  0  0
    2.0655    7.4460    9.0364 N   0  0  0  0  0  0  0  0  0  0  0  0
    2.3126    9.6318   10.0732 O   0  0  0  0  0  0  0  0  0  0  0  0
    1.5334    7.7383   11.4653 O   0  0  0  0  0  0  0  0  0  0  0  0
    0.1098    5.9123    9.2145 O   0  0  0  0  0  0  0  0  0  0  0  0
    2.1473    5.2387    8.0201 O   0  0  0  0  0  0  0  0  0  0  0  0
   12.3710    4.8447    7.5732 C   0  0  0  0  0  0  0  0  0  0  0  0
   12.0641    9.2022    6.7925 C   0  0  0  0  0  0  0  0  0  0  0  0
   13.0672    5.7485    8.2368 F   0  0  0  0  0  0  0  0  0  0  0  0
   11.2725    4.5163    8.2505 F   0  0  0  0  0  0  0  0  0  0  0  0
   13.1103    3.7183    7.5281 F   0  0  0  0  0  0  0  0  0  0  0  0
   12.4246    9.8196    5.6690 F   0  0  0  0  0  0  0  0  0  0  0  0
   11.3590   10.0662    7.5242 F   0  0  0  0  0  0  0  0  0  0  0  0
   13.1662    8.8931    7.4673 F   0  0  0  0  0  0  0  0  0  0  0  0
   11.9790    5.3181    5.7763 S   0  0  0  0  0  0  0  0  0  0  0  0
   11.0625    7.6652    6.4129 S   0  0  0  0  0  0  0  0  0  0  0  0
   12.1544    6.8499    5.5891 N   0  0  0  0  0  0  0  0  0  0  0  0
   12.9192    4.5465    5.0195 O   0  0  0  0  0  0  0  0  0  0  0  0
   10.6065    4.8564    5.6303 O   0  0  0  0  0  0  0  0  0  0  0  0
    9.9484    8.1256    5.6459 O   0  0  0  0  0  0  0  0  0  0  0  0
   10.7942    7.0267    7.6617 O   0  0  0  0  0  0  0  0  0  0  0  0
    7.8507    8.5339    3.2077 C   0  0  0  0  0  0  0  0  0  0  0  0
    7.8767    7.6862    2.1864 C   0  0  0  0  0  0  0  0  0  0  0  0
    7.1449    9.3479    3.2328 H   0  0  0  0  0  0  0  0  0  0  0  0
    8.5208    8.4529    4.0466 H   0  0  0  0  0  0  0  0  0  0  0  0
    8.7876    6.5545    2.0515 C   0  0  0  0  0  0  0  0  0  0  0  0
    7.1619    7.7916    1.3773 H   0  0  0  0  0  0  0  0  0  0  0  0
    8.4569    5.5136    1.1815 C   0  0  0  0  0  0  0  0  0  0  0  0
    9.2735    4.4076    1.0575 C   0  0  0  0  0  0  0  0  0  0  0  0
   10.4590    4.3141    1.7836 C   0  0  0  0  0  0  0  0  0  0  0  0
    9.9922    6.4727    2.7522 C   0  0  0  0  0  0  0  0  0  0  0  0
   10.8164    5.3714    2.6142 C   0  0  0  0  0  0  0  0  0  0  0  0
   10.2905    7.2691    3.4134 H   0  0  0  0  0  0  0  0  0  0  0  0
   11.7475    5.3407    3.1583 H   0  0  0  0  0  0  0  0  0  0  0  0
    8.9990    3.6100    0.3798 H   0  0  0  0  0  0  0  0  0  0  0  0
    7.5428    5.5697    0.6073 H   0  0  0  0  0  0  0  0  0  0  0  0
   11.3026    3.0702    1.6903 C   0  0  0  0  0  0  0  0  0  0  0  0
   11.0046    2.0447    2.6998 N   0  0  0  0  0  0  0  0  0  0  0  0
   12.3579    3.3273    1.7798 H   0  0  0  0  0  0  0  0  0  0  0  0
   11.1479    2.6011    0.7111 H   0  0  0  0  0  0  0  0  0  0  0  0
    9.7070    2.0436    3.2896 C   0  0  0  0  0  0  0  0  0  0  0  0
   11.9701    1.8646    3.7836 C   0  0  0  0  0  0  0  0  0  0  0  0
   11.1383    1.8024    5.0716 C   0  0  0  0  0  0  0  0  0  0  0  0
   12.6706    2.7015    3.8381 H   0  0  0  0  0  0  0  0  0  0  0  0
   12.5328    0.9393    3.6298 H   0  0  0  0  0  0  0  0  0  0  0  0
    9.8922    2.5012    4.7028 N   0  0  0  0  0  0  0  0  0  0  0  0
   11.6382    2.3009    5.8986 H   0  0  0  0  0  0  0  0  0  0  0  0
   10.8965    0.7727    5.3459 H   0  0  0  0  0  0  0  0  0  0  0  0
    9.3161    1.0162    3.3492 H   0  0  0  0  0  0  0  0  0  0  0  0
    9.0049    2.6753    2.7450 H   0  0  0  0  0  0  0  0  0  0  0  0
    8.7570    2.2614    5.6091 C   0  0  0  0  0  0  0  0  0  0  0  0
    7.4701    2.9341    5.1394 C   0  0  0  0  0  0  0  0  0  0  0  0
    9.0298    2.6634    6.5862 H   0  0  0  0  0  0  0  0  0  0  0  0
    8.6038    1.1809    5.6942 H   0  0  0  0  0  0  0  0  0  0  0  0
    7.6180    4.4371    4.9017 C   0  0  0  0  0  0  0  0  0  0  0  0
    6.7282    2.7777    5.9248 H   0  0  0  0  0  0  0  0  0  0  0  0
    7.0973    2.4505    4.2338 H   0  0  0  0  0  0  0  0  0  0  0  0
    6.2583    5.0895    4.6872 C   0  0  0  0  0  0  0  0  0  0  0  0
    8.2398    4.6300    4.0270 H   0  0  0  0  0  0  0  0  0  0  0  0
    8.1104    4.9004    5.7556 H   0  0  0  0  0  0  0  0  0  0  0  0
    5.6381    4.9699    5.5720 H   0  0  0  0  0  0  0  0  0  0  0  0
    5.7449    4.6364    3.8413 H   0  0  0  0  0  0  0  0  0  0  0  0
    6.3850    6.1494    4.4858 H   0  0  0  0  0  0  0  0  0  0  0  0
   10.1072    3.5324    4.7713 H   0  0  0  0  0  0  0  0  0  0  0  0
    6.7374    2.6415    8.7341 C   0  0  0  0  0  0  0  0  0  0  0  0
    7.4666    3.7498    8.6740 C   0  0  0  0  0  0  0  0  0  0  0  0
    7.1933    1.6698    8.8271 H   0  0  0  0  0  0  0  0  0  0  0  0
    5.6609    2.6571    8.7093 H   0  0  0  0  0  0  0  0  0  0  0  0
    6.9549    5.1110    8.5641 C   0  0  0  0  0  0  0  0  0  0  0  0
    8.5483    3.6880    8.7024 H   0  0  0  0  0  0  0  0  0  0  0  0
    7.8346    6.1360    8.2129 C   0  0  0  0  0  0  0  0  0  0  0  0
    7.4005    7.4439    8.1170 C   0  0  0  0  0  0  0  0  0  0  0  0
    6.0799    7.7743    8.4014 C   0  0  0  0  0  0  0  0  0  0  0  0
    5.6252    5.4431    8.8265 C   0  0  0  0  0  0  0  0  0  0  0  0
    5.2018    6.7557    8.7600 C   0  0  0  0  0  0  0  0  0  0  0  0
    4.9180    4.6791    9.1071 H   0  0  0  0  0  0  0  0  0  0  0  0
    4.1810    6.9975    9.0111 H   0  0  0  0  0  0  0  0  0  0  0  0
    8.1112    8.2066    7.8339 H   0  0  0  0  0  0  0  0  0  0  0  0
    8.8742    5.9194    8.0217 H   0  0  0  0  0  0  0  0  0  0  0  0
    5.6087    9.2034    8.3270 C   0  0  0  0  0  0  0  0  0  0  0  0
    4.9000    9.5673    7.0923 N   0  0  0  0  0  0  0  0  0  0  0  0
    6.4794    9.8649    8.3917 H   0  0  0  0  0  0  0  0  0  0  0  0
    4.9457    9.4195    9.1675 H   0  0  0  0  0  0  0  0  0  0  0  0
    3.4985    9.7238    7.1330 C   0  0  0  0  0  0  0  0  0  0  0  0
    5.1326    8.7519    5.9237 C   0  0  0  0  0  0  0  0  0  0  0  0
    3.9800    7.7200    5.9249 C   0  0  0  0  0  0  0  0  0  0  0  0
    6.1160    8.2892    5.9503 H   0  0  0  0  0  0  0  0  0  0  0  0
    5.0641    9.3888    5.0357 H   0  0  0  0  0  0  0  0  0  0  0  0
    2.8818    8.3985    6.6532 N   0  0  0  0  0  0  0  0  0  0  0  0
    4.2656    6.8169    6.4617 H   0  0  0  0  0  0  0  0  0  0  0  0
    3.6692    7.4627    4.9159 H   0  0  0  0  0  0  0  0  0  0  0  0
    3.1923   10.4801    6.3999 H   0  0  0  0  0  0  0  0  0  0  0  0
    3.1197    9.9755    8.1256 H   0  0  0  0  0  0  0  0  0  0  0  0
    1.6337    8.5999    5.8912 C   0  0  0  0  0  0  0  0  0  0  0  0
    0.7244    7.3714    5.8474 C   0  0  0  0  0  0  0  0  0  0  0  0
    1.8928    8.9348    4.8833 H   0  0  0  0  0  0  0  0  0  0  0  0
    1.0801    9.3971    6.3910 H   0  0  0  0  0  0  0  0  0  0  0  0
    1.1875    6.2031    4.9770 C   0  0  0  0  0  0  0  0  0  0  0  0
   -0.2479    7.7110    5.4865 H   0  0  0  0  0  0  0  0  0  0  0  0
    0.5840    7.0048    6.8644 H   0  0  0  0  0  0  0  0  0  0  0  0
    1.3012    6.5531    3.4968 C   0  0  0  0  0  0  0  0  0  0  0  0
    0.4446    5.4130    5.0883 H   0  0  0  0  0  0  0  0  0  0  0  0
    2.1242    5.7998    5.3591 H   0  0  0  0  0  0  0  0  0  0  0  0
    0.3642    6.9705    3.1359 H   0  0  0  0  0  0  0  0  0  0  0  0
    1.5198    5.6603    2.9176 H   0  0  0  0  0  0  0  0  0  0  0  0
    2.0916    7.2749    3.3009 H   0  0  0  0  0  0  0  0  0  0  0  0
    2.6243    7.8715    7.5279 H   0  0  0  0  0  0  0  0  0  0  0  0
  1  3  1  0  0  0  0
  1  4  1  0  0  0  0
  1  5  1  0  0  0  0
  2  6  1  0  0  0  0
  2  7  1  0  0  0  0
  2  8  1  0  0  0  0
  1  9  1  0  0  0  0
  2 10  1  0  0  0  0
  9 11  1  0  0  0  0
 10 11  1  0  0  0  0
  9 12  2  0  0  0  0
  9 13  2  0  0  0  0
 10 14  2  0  0  0  0
 10 15  2  0  0  0  0
 16 18  1  0  0  0  0
 16 19  1  0  0  0  0
 16 20  1  0  0  0  0
 17 21  1  0  0  0  0
 17 22  1  0  0  0  0
 17 23  1  0  0  0  0
 16 24  1  0  0  0  0
 17 25  1  0  0  0  0
 24 26  1  0  0  0  0
 25 26  1  0  0  0  0
 24 27  2  0  0  0  0
 24 28  2  0  0  0  0
 25 29  2  0  0  0  0
 25 30  2  0  0  0  0
 31 32  2  0  0  0  0
 31 33  1  0  0  0  0
 31 34  1  0  0  0  0
 32 35  1  0  0  0  0
 32 36  1  0  0  0  0
 35 37  4  0  0  0  0
 37 38  4  0  0  0  0
 38 39  4  0  0  0  0
 35 40  4  0  0  0  0
 39 41  4  0  0  0  0
 40 41  4  0  0  0  0
 40 42  1  0  0  0  0
 41 43  1  0  0  0  0
 38 44  1  0  0  0  0
 37 45  1  0  0  0  0
 39 46  1  0  0  0  0
 46 47  1  0  0  0  0
 46 48  1  0  0  0  0
 46 49  1  0  0  0  0
 47 50  1  0  0  0  0
 47 51  1  0  0  0  0
 51 52  1  0  0  0  0
 51 53  1  0  0  0  0
 51 54  1  0  0  0  0
 50 55  1  0  0  0  0
 52 55  1  0  0  0  0
 52 56  1  0  0  0  0
 52 57  1  0  0  0  0
 50 58  1  0  0  0  0
 50 59  1  0  0  0  0
 55 60  1  0  0  0  0
 60 61  1  0  0  0  0
 60 62  1  0  0  0  0
 60 63  1  0  0  0  0
 61 64  1  0  0  0  0
 61 65  1  0  0  0  0
 61 66  1  0  0  0  0
 64 67  1  0  0  0  0
 64 68  1  0  0  0  0
 64 69  1  0  0  0  0
 67 70  1  0  0  0  0
 67 71  1  0  0  0  0
 67 72  1  0  0  0  0
 55 73  1  0  0  0  0
 74 75  2  0  0  0  0
 74 76  1  0  0  0  0
 74 77  1  0  0  0  0
 75 78  1  0  0  0  0
 75 79  1  0  0  0  0
 78 80  4  0  0  0  0
 80 81  4  0  0  0  0
 81 82  4  0  0  0  0
 78 83  4  0  0  0  0
 82 84  4  0  0  0  0
 83 84  4  0  0  0  0
 83 85  1  0  0  0  0
 84 86  1  0  0  0  0
 81 87  1  0  0  0  0
 80 88  1  0  0  0  0
 82 89  1  0  0  0  0
 89 90  1  0  0  0  0
 89 91  1  0  0  0  0
 89 92  1  0  0  0  0
 90 93  1  0  0  0  0
 90 94  1  0  0  0  0
 94 95  1  0  0  0  0
 94 96  1  0  0  0  0
 94 97  1  0  0  0  0
 93 98  1  0  0  0  0
 95 98  1  0  0  0  0
 95 99  1  0  0  0  0
 95100  1  0  0  0  0
 93101  1  0  0  0  0
 93102  1  0  0  0  0
 98103  1  0  0  0  0
103104  1  0  0  0  0
103105  1  0  0  0  0
103106  1  0  0  0  0
104107  1  0  0  0  0
104108  1  0  0  0  0
104109  1  0  0  0  0
107110  1  0  0  0  0
107111  1  0  0  0  0
107112  1  0  0  0  0
110113  1  0  0  0  0
110114  1  0  0  0  0
110115  1  0  0  0  0
 98116  1  0  0  0  0
M  END
