 xtb: 6.7.1 (edcfbbe)
          10212513343D

116116  0     0  0            999 V2000
    4.8478   10.7407    9.8554 C   0  0  0  0  0  0  0  0  0  0  0  0
    7.2220    7.1422   10.1590 C   0  0  0  0  0  0  0  0  0  0  0  0
    3.6331   11.3092    9.8387 F   0  0  0  0  0  0  0  0  0  0  0  0
    4.7879    9.7674   10.7802 F   0  0  0  0  0  0  0  0  0  0  0  0
    5.7051   11.6605   10.2543 F   0  0  0  0  0  0  0  0  0  0  0  0
    6.6215    6.1299    9.4925 F   0  0  0  0  0  0  0  0  0  0  0  0
    8.3665    6.6671   10.6375 F   0  0  0  0  0  0  0  0  0  0  0  0
    6.4262    7.3886   11.2106 F   0  0  0  0  0  0  0  0  0  0  0  0
    5.2041    9.9494    8.1694 S   0  0  0  0  0  0  0  0  0  0  0  0
    7.3374    8.6311    8.9874 S   0  0  0  0  0  0  0  0  0  0  0  0
    5.8092    8.5417    8.5587 N   0  0  0  0  0  0  0  0  0  0  0  0
    3.8904    9.7656    7.6229 O   0  0  0  0  0  0  0  0  0  0  0  0
    6.1055   10.8115    7.4813 O   0  0  0  0  0  0  0  0  0  0  0  0
    8.2763    8.1963    8.0136 O   0  0  0  0  0  0  0  0  0  0  0  0
    7.6146    9.7516    9.8166 O   0  0  0  0  0  0  0  0  0  0  0  0
    7.4527    0.2210    4.6090 C   0  0  0  0  0  0  0  0  0  0  0  0
    9.9385    2.2573    0.8845 C   0  0  0  0  0  0  0  0  0  0  0  0
    7.3468    0.1173    5.9359 F   0  0  0  0  0  0  0  0  0  0  0  0
    6.2204    0.5197    4.1467 F   0  0  0  0  0  0  0  0  0  0  0  0
    7.7969   -0.9576    4.1316 F   0  0  0  0  0  0  0  0  0  0  0  0
   10.1815    2.0279   -0.4035 F   0  0  0  0  0  0  0  0  0  0  0  0
    9.6519    3.5634    1.0104 F   0  0  0  0  0  0  0  0  0  0  0  0
   11.0360    2.0046    1.5719 F   0  0  0  0  0  0  0  0  0  0  0  0
    8.5483    1.6973    4.1843 S   0  0  0  0  0  0  0  0  0  0  0  0
    8.4116    1.3296    1.4673 S   0  0  0  0  0  0  0  0  0  0  0  0
    7.9976    2.1422    2.7653 N   0  0  0  0  0  0  0  0  0  0  0  0
    8.0845    2.6659    5.1339 O   0  0  0  0  0  0  0  0  0  0  0  0
    9.9066    1.2963    4.1975 O   0  0  0  0  0  0  0  0  0  0  0  0
    8.7416   -0.0271    1.7160 O   0  0  0  0  0  0  0  0  0  0  0  0
    7.4342    1.6491    0.4648 O   0  0  0  0  0  0  0  0  0  0  0  0
    9.9277    4.2777    8.9694 C   0  0  0  0  0  0  0  0  0  0  0  0
    8.9330    3.7533    8.2643 C   0  0  0  0  0  0  0  0  0  0  0  0
   10.8674    4.5228    8.5073 H   0  0  0  0  0  0  0  0  0  0  0  0
    9.8430    4.5113   10.0172 H   0  0  0  0  0  0  0  0  0  0  0  0
    7.6177    3.4082    8.7877 C   0  0  0  0  0  0  0  0  0  0  0  0
    9.0520    3.5717    7.2045 H   0  0  0  0  0  0  0  0  0  0  0  0
    6.5512    3.2901    7.8949 C   0  0  0  0  0  0  0  0  0  0  0  0
    5.2857    2.9664    8.3411 C   0  0  0  0  0  0  0  0  0  0  0  0
    5.0430    2.7289    9.6925 C   0  0  0  0  0  0  0  0  0  0  0  0
    7.3731    3.1670   10.1397 C   0  0  0  0  0  0  0  0  0  0  0  0
    6.1085    2.8289   10.5816 C   0  0  0  0  0  0  0  0  0  0  0  0
    8.1851    3.2191   10.8477 H   0  0  0  0  0  0  0  0  0  0  0  0
    5.9512    2.6132   11.6299 H   0  0  0  0  0  0  0  0  0  0  0  0
    4.4820    2.8461    7.6250 H   0  0  0  0  0  0  0  0  0  0  0  0
    6.7421    3.4303    6.8433 H   0  0  0  0  0  0  0  0  0  0  0  0
    3.6598    2.3649   10.1724 C   0  0  0  0  0  0  0  0  0  0  0  0
    2.7959    3.4929   10.5339 N   0  0  0  0  0  0  0  0  0  0  0  0
    3.7207    1.7269   11.0556 H   0  0  0  0  0  0  0  0  0  0  0  0
    3.1301    1.8085    9.3949 H   0  0  0  0  0  0  0  0  0  0  0  0
    2.5748    4.4552    9.5187 C   0  0  0  0  0  0  0  0  0  0  0  0
    3.2176    4.2893   11.6682 C   0  0  0  0  0  0  0  0  0  0  0  0
    4.0908    5.4187   11.0768 C   0  0  0  0  0  0  0  0  0  0  0  0
    3.7561    3.6853   12.3938 H   0  0  0  0  0  0  0  0  0  0  0  0
    2.3268    4.7017   12.1500 H   0  0  0  0  0  0  0  0  0  0  0  0
    3.6838    5.4946    9.6486 N   0  0  0  0  0  0  0  0  0  0  0  0
    5.1444    5.1605   11.1470 H   0  0  0  0  0  0  0  0  0  0  0  0
    3.9267    6.3765   11.5658 H   0  0  0  0  0  0  0  0  0  0  0  0
    1.6351    4.9842    9.7112 H   0  0  0  0  0  0  0  0  0  0  0  0
    2.5613    4.0181    8.5226 H   0  0  0  0  0  0  0  0  0  0  0  0
    3.2795    6.8476    9.1999 C   0  0  0  0  0  0  0  0  0  0  0  0
    2.8497    6.8815    7.7405 C   0  0  0  0  0  0  0  0  0  0  0  0
    4.1380    7.5178    9.3010 H   0  0  0  0  0  0  0  0  0  0  0  0
    2.4704    7.1882    9.8492 H   0  0  0  0  0  0  0  0  0  0  0  0
    3.9696    6.4598    6.7879 C   0  0  0  0  0  0  0  0  0  0  0  0
    2.6245    7.9274    7.5278 H   0  0  0  0  0  0  0  0  0  0  0  0
    1.9467    6.2907    7.5706 H   0  0  0  0  0  0  0  0  0  0  0  0
    3.6827    6.9561    5.3752 C   0  0  0  0  0  0  0  0  0  0  0  0
    4.0956    5.3721    6.7767 H   0  0  0  0  0  0  0  0  0  0  0  0
    4.8970    6.9164    7.1364 H   0  0  0  0  0  0  0  0  0  0  0  0
    2.7522    6.5350    4.9957 H   0  0  0  0  0  0  0  0  0  0  0  0
    4.4973    6.6911    4.7076 H   0  0  0  0  0  0  0  0  0  0  0  0
    3.5925    8.0387    5.3935 H   0  0  0  0  0  0  0  0  0  0  0  0
    4.4760    5.2002    9.0636 H   0  0  0  0  0  0  0  0  0  0  0  0
    8.7751   11.9647    5.5634 C   0  0  0  0  0  0  0  0  0  0  0  0
    9.2748   11.1207    4.6680 C   0  0  0  0  0  0  0  0  0  0  0  0
    9.1546   12.9695    5.6481 H   0  0  0  0  0  0  0  0  0  0  0  0
    7.9867   11.6958    6.2448 H   0  0  0  0  0  0  0  0  0  0  0  0
    8.8563    9.7388    4.4702 C   0  0  0  0  0  0  0  0  0  0  0  0
   10.0799   11.4480    4.0194 H   0  0  0  0  0  0  0  0  0  0  0  0
    7.7784    9.1803    5.1596 C   0  0  0  0  0  0  0  0  0  0  0  0
    7.4378    7.8585    4.9760 C   0  0  0  0  0  0  0  0  0  0  0  0
    8.1406    7.0546    4.0854 C   0  0  0  0  0  0  0  0  0  0  0  0
    9.5527    8.9295    3.5714 C   0  0  0  0  0  0  0  0  0  0  0  0
    9.1962    7.6084    3.3751 C   0  0  0  0  0  0  0  0  0  0  0  0
   10.3889    9.3414    3.0235 H   0  0  0  0  0  0  0  0  0  0  0  0
    9.7529    6.9981    2.6766 H   0  0  0  0  0  0  0  0  0  0  0  0
    6.6224    7.4374    5.5411 H   0  0  0  0  0  0  0  0  0  0  0  0
    7.2124    9.7758    5.8543 H   0  0  0  0  0  0  0  0  0  0  0  0
    7.7337    5.6174    3.9062 C   0  0  0  0  0  0  0  0  0  0  0  0
    6.3139    5.5615    3.5465 N   0  0  0  0  0  0  0  0  0  0  0  0
    7.8542    5.0839    4.8507 H   0  0  0  0  0  0  0  0  0  0  0  0
    8.3682    5.1204    3.1599 H   0  0  0  0  0  0  0  0  0  0  0  0
    5.7032    4.2846    3.6264 C   0  0  0  0  0  0  0  0  0  0  0  0
    6.0420    6.0005    2.1935 C   0  0  0  0  0  0  0  0  0  0  0  0
    6.2160    4.7331    1.3310 C   0  0  0  0  0  0  0  0  0  0  0  0
    6.7147    6.8072    1.9119 H   0  0  0  0  0  0  0  0  0  0  0  0
    5.0113    6.3633    2.1386 H   0  0  0  0  0  0  0  0  0  0  0  0
    5.8839    3.6283    2.2626 N   0  0  0  0  0  0  0  0  0  0  0  0
    7.2464    4.6215    0.9972 H   0  0  0  0  0  0  0  0  0  0  0  0
    5.5644    4.7165    0.4618 H   0  0  0  0  0  0  0  0  0  0  0  0
    4.6285    4.3945    3.7983 H   0  0  0  0  0  0  0  0  0  0  0  0
    6.1583    3.6589    4.3945 H   0  0  0  0  0  0  0  0  0  0  0  0
    4.7974    2.7222    1.8415 C   0  0  0  0  0  0  0  0  0  0  0  0
    3.4473    3.3943    1.6048 C   0  0  0  0  0  0  0  0  0  0  0  0
    4.6983    1.9594    2.6169 H   0  0  0  0  0  0  0  0  0  0  0  0
    5.1397    2.2251    0.9302 H   0  0  0  0  0  0  0  0  0  0  0  0
    2.4125    2.3616    1.1553 C   0  0  0  0  0  0  0  0  0  0  0  0
    3.5260    4.1640    0.8362 H   0  0  0  0  0  0  0  0  0  0  0  0
    3.0853    3.8713    2.5173 H   0  0  0  0  0  0  0  0  0  0  0  0
    1.0505    3.0043    0.9217 C   0  0  0  0  0  0  0  0  0  0  0  0
    2.3229    1.5844    1.9162 H   0  0  0  0  0  0  0  0  0  0  0  0
    2.7541    1.8860    0.2352 H   0  0  0  0  0  0  0  0  0  0  0  0
    1.1138    3.7682    0.1506 H   0  0  0  0  0  0  0  0  0  0  0  0
    0.6820    3.4683    1.8338 H   0  0  0  0  0  0  0  0  0  0  0  0
    0.3288    2.2574    0.6031 H   0  0  0  0  0  0  0  0  0  0  0  0
    6.7427    3.0167    2.3762 H   0  0  0  0  0  0  0  0  0  0  0  0
  1  3  1  0  0  0  0
  1  4  1  0  0  0  0
  1  5  1  0  0  0  0
  2  6  1  0  0  0  0
  2  7  1  0  0  0  0
  2  8  1  0  0  0  0
  1  9  1  0  0  0  0
  2 10  1  0  0  0  0
  9 11  1  0  0  0  0
 10 11  1  0  0  0  0
  9 12  2  0  0  0  0
  9 13  2  0  0  0  0
 10 14  2  0  0  0  0
 10 15  2  0  0  0  0
 16 18  1  0  0  0  0
 16 19  1  0  0  0  0
 16 20  1  0  0  0  0
 17 21  1  0  0  0  0
 17 22  1  0  0  0  0
 17 23  1  0  0  0  0
 16 24  1  0  0  0  0
 17 25  1  0  0  0  0
 24 26  1  0  0  0  0
 25 26  1  0  0  0  0
 24 27  2  0  0  0  0
 24 28  2  0  0  0  0
 25 29  2  0  0  0  0
 25 30  2  0  0  0  0
 31 32  2  0  0  0  0
 31 33  1  0  0  0  0
 31 34  1  0  0  0  0
 32 35  1  0  0  0  0
 32 36  1  0  0  0  0
 35 37  4  0  0  0  0
 37 38  4  0  0  0  0
 38 39  4  0  0  0  0
 35 40  4  0  0  0  0
 39 41  4  0  0  0  0
 40 41  4  0  0  0  0
 40 42  1  0  0  0  0
 41 43  1  0  0  0  0
 38 44  1  0  0  0  0
 37 45  1  0  0  0  0
 39 46  1  0  0  0  0
 46 47  1  0  0  0  0
 46 48  1  0  0  0  0
 46 49  1  0  0  0  0
 47 50  1  0  0  0  0
 47 51  1  0  0  0  0
 51 52  1  0  0  0  0
 51 53  1  0  0  0  0
 51 54  1  0  0  0  0
 50 55  1  0  0  0  0
 52 55  1  0  0  0  0
 52 56  1  0  0  0  0
 52 57  1  0  0  0  0
 50 58  1  0  0  0  0
 50 59  1  0  0  0  0
 55 60  1  0  0  0  0
 60 61  1  0  0  0  0
 60 62  1  0  0  0  0
 60 63  1  0  0  0  0
 61 64  1  0  0  0  0
 61 65  1  0  0  0  0
 61 66  1  0  0  0  0
 64 67  1  0  0  0  0
 64 68  1  0  0  0  0
 64 69  1  0  0  0  0
 67 70  1  0  0  0  0
 67 71  1  0  0  0  0
 67 72  1  0  0  0  0
 55 73  1  0  0  0  0
 74 75  2  0  0  0  0
 74 76  1  0  0  0  0
 74 77  1  0  0  0  0
 75 78  1  0  0  0  0
 75 79  1  0  0  0  0
 78 80  4  0  0  0  0
 80 81  4  0  0  0  0
 81 82  4  0  0  0  0
 78 83  4  0  0  0  0
 82 84  4  0  0  0  0
 83 84  4  0  0  0  0
 83 85  1  0  0  0  0
 84 86  1  0  0  0  0
 81 87  1  0  0  0  0
 80 88  1  0  0  0  0
 82 89  1  0  0  0  0
 89 90  1  0  0  0  0
 89 91  1  0  0  0  0
 89 92  1  0  0  0  0
 90 93  1  0  0  0  0
 90 94  1  0  0  0  0
 94 95  1  0  0  0  0
 94 96  1  0  0  0  0
 94 97  1  0  0  0  0
 93 98  1  0  0  0  0
 95 98  1  0  0  0  0
 95 99  1  0  0  0  0
 95100  1  0  0  0  0
 93101  1  0  0  0  0
 93102  1  0  0  0  0
 98103  1  0  0  0  0
103104  1  0  0  0  0
103105  1  0  0  0  0
103106  1  0  0  0  0
104107  1  0  0  0  0
104108  1  0  0  0  0
104109  1  0  0  0  0
107110  1  0  0  0  0
107111  1  0  0  0  0
107112  1  0  0  0  0
110113  1  0  0  0  0
110114  1  0  0  0  0
110115  1  0  0  0  0
 98116  1  0  0  0  0
M  END
