 xtb: 6.7.1 (edcfbbe)
          10212513503D

116116  0     0  0            999 V2000
    1.5919    4.4256    5.8616 C   0  0  0  0  0  0  0  0  0  0  0  0
    3.5804    0.6882    6.5153 C   0  0  0  0  0  0  0  0  0  0  0  0
    1.0094    4.9856    4.7980 F   0  0  0  0  0  0  0  0  0  0  0  0
    0.7982    3.4717    6.3184 F   0  0  0  0  0  0  0  0  0  0  0  0
    1.6935    5.3717    6.8022 F   0  0  0  0  0  0  0  0  0  0  0  0
    4.6592    0.9267    7.2528 F   0  0  0  0  0  0  0  0  0  0  0  0
    2.5241    1.2603    7.0861 F   0  0  0  0  0  0  0  0  0  0  0  0
    3.3774   -0.6298    6.5312 F   0  0  0  0  0  0  0  0  0  0  0  0
    3.2864    3.7612    5.3940 S   0  0  0  0  0  0  0  0  0  0  0  0
    3.7990    1.2606    4.7257 S   0  0  0  0  0  0  0  0  0  0  0  0
    2.8639    2.5130    4.5467 N   0  0  0  0  0  0  0  0  0  0  0  0
    3.8666    4.8389    4.6219 O   0  0  0  0  0  0  0  0  0  0  0  0
    3.9680    3.4557    6.6086 O   0  0  0  0  0  0  0  0  0  0  0  0
    3.3951    0.1673    3.9140 O   0  0  0  0  0  0  0  0  0  0  0  0
    5.2012    1.6221    4.6421 O   0  0  0  0  0  0  0  0  0  0  0  0
    8.8770    8.6803    1.2439 C   0  0  0  0  0  0  0  0  0  0  0  0
   11.1931    4.8907    2.0620 C   0  0  0  0  0  0  0  0  0  0  0  0
    8.8109    9.1077    2.5159 F   0  0  0  0  0  0  0  0  0  0  0  0
    9.9656    9.1426    0.6736 F   0  0  0  0  0  0  0  0  0  0  0  0
    7.8281    9.2591    0.6284 F   0  0  0  0  0  0  0  0  0  0  0  0
   11.9324    5.2283    1.0238 F   0  0  0  0  0  0  0  0  0  0  0  0
   11.9667    4.1791    2.8942 F   0  0  0  0  0  0  0  0  0  0  0  0
   10.2248    4.0502    1.6589 F   0  0  0  0  0  0  0  0  0  0  0  0
    8.6240    6.7999    1.1843 S   0  0  0  0  0  0  0  0  0  0  0  0
   10.4475    6.3644    3.0008 S   0  0  0  0  0  0  0  0  0  0  0  0
    8.8960    6.2930    2.6572 N   0  0  0  0  0  0  0  0  0  0  0  0
    7.2134    6.6749    0.9331 O   0  0  0  0  0  0  0  0  0  0  0  0
    9.5274    6.2732    0.2212 O   0  0  0  0  0  0  0  0  0  0  0  0
   11.0497    7.5337    2.4563 O   0  0  0  0  0  0  0  0  0  0  0  0
   10.6480    6.0463    4.3777 O   0  0  0  0  0  0  0  0  0  0  0  0
    1.9472   11.7131    8.2127 C   0  0  0  0  0  0  0  0  0  0  0  0
    2.0176   10.4307    7.8788 C   0  0  0  0  0  0  0  0  0  0  0  0
    1.8553   12.0185    9.2404 H   0  0  0  0  0  0  0  0  0  0  0  0
    1.9814   12.5093    7.4873 H   0  0  0  0  0  0  0  0  0  0  0  0
    2.1484    9.8920    6.5303 C   0  0  0  0  0  0  0  0  0  0  0  0
    1.9952    9.6784    8.6585 H   0  0  0  0  0  0  0  0  0  0  0  0
    2.0022   10.6679    5.3789 C   0  0  0  0  0  0  0  0  0  0  0  0
    2.1283   10.1065    4.1225 C   0  0  0  0  0  0  0  0  0  0  0  0
    2.4134    8.7542    3.9685 C   0  0  0  0  0  0  0  0  0  0  0  0
    2.4204    8.5306    6.3724 C   0  0  0  0  0  0  0  0  0  0  0  0
    2.5614    7.9732    5.1149 C   0  0  0  0  0  0  0  0  0  0  0  0
    2.5119    7.8981    7.2426 H   0  0  0  0  0  0  0  0  0  0  0  0
    2.7455    6.9123    5.0183 H   0  0  0  0  0  0  0  0  0  0  0  0
    1.9830   10.7249    3.2478 H   0  0  0  0  0  0  0  0  0  0  0  0
    1.7659   11.7168    5.4643 H   0  0  0  0  0  0  0  0  0  0  0  0
    2.5894    8.1365    2.6032 C   0  0  0  0  0  0  0  0  0  0  0  0
    3.9709    8.0309    2.1407 N   0  0  0  0  0  0  0  0  0  0  0  0
    2.0530    8.7261    1.8561 H   0  0  0  0  0  0  0  0  0  0  0  0
    2.1765    7.1258    2.6009 H   0  0  0  0  0  0  0  0  0  0  0  0
    4.8150    7.1295    2.8331 C   0  0  0  0  0  0  0  0  0  0  0  0
    4.7379    9.2581    2.1142 C   0  0  0  0  0  0  0  0  0  0  0  0
    5.5078    9.3024    3.4629 C   0  0  0  0  0  0  0  0  0  0  0  0
    4.0946   10.1240    1.9741 H   0  0  0  0  0  0  0  0  0  0  0  0
    5.4433    9.1987    1.2834 H   0  0  0  0  0  0  0  0  0  0  0  0
    5.3595    7.9370    4.0160 N   0  0  0  0  0  0  0  0  0  0  0  0
    5.0822   10.0350    4.1488 H   0  0  0  0  0  0  0  0  0  0  0  0
    6.5617    9.5195    3.3072 H   0  0  0  0  0  0  0  0  0  0  0  0
    5.6716    6.8660    2.2011 H   0  0  0  0  0  0  0  0  0  0  0  0
    4.3028    6.2395    3.1956 H   0  0  0  0  0  0  0  0  0  0  0  0
    6.5483    7.3558    4.6645 C   0  0  0  0  0  0  0  0  0  0  0  0
    6.9959    8.1383    5.8947 C   0  0  0  0  0  0  0  0  0  0  0  0
    7.3611    7.2906    3.9372 H   0  0  0  0  0  0  0  0  0  0  0  0
    6.2824    6.3463    4.9716 H   0  0  0  0  0  0  0  0  0  0  0  0
    5.9519    8.1879    7.0145 C   0  0  0  0  0  0  0  0  0  0  0  0
    7.2827    9.1540    5.6166 H   0  0  0  0  0  0  0  0  0  0  0  0
    7.8902    7.6385    6.2682 H   0  0  0  0  0  0  0  0  0  0  0  0
    5.5359    6.8053    7.5094 C   0  0  0  0  0  0  0  0  0  0  0  0
    5.0693    8.7519    6.6966 H   0  0  0  0  0  0  0  0  0  0  0  0
    6.3896    8.7373    7.8498 H   0  0  0  0  0  0  0  0  0  0  0  0
    6.4145    6.2181    7.7628 H   0  0  0  0  0  0  0  0  0  0  0  0
    4.9557    6.2545    6.7724 H   0  0  0  0  0  0  0  0  0  0  0  0
    4.9258    6.8989    8.4033 H   0  0  0  0  0  0  0  0  0  0  0  0
    4.5946    7.9466    4.7102 H   0  0  0  0  0  0  0  0  0  0  0  0
   11.0211    5.7794   11.2931 C   0  0  0  0  0  0  0  0  0  0  0  0
    9.9311    5.0286   11.1887 C   0  0  0  0  0  0  0  0  0  0  0  0
   11.4653    5.9940   12.2502 H   0  0  0  0  0  0  0  0  0  0  0  0
   11.5191    6.2014   10.4371 H   0  0  0  0  0  0  0  0  0  0  0  0
    9.2493    4.6584    9.9542 C   0  0  0  0  0  0  0  0  0  0  0  0
    9.4892    4.6167   12.0883 H   0  0  0  0  0  0  0  0  0  0  0  0
    9.5561    5.2235    8.7163 C   0  0  0  0  0  0  0  0  0  0  0  0
    8.9000    4.8266    7.5666 C   0  0  0  0  0  0  0  0  0  0  0  0
    7.9158    3.8462    7.6210 C   0  0  0  0  0  0  0  0  0  0  0  0
    8.2428    3.6903    9.9987 C   0  0  0  0  0  0  0  0  0  0  0  0
    7.5902    3.2872    8.8518 C   0  0  0  0  0  0  0  0  0  0  0  0
    7.9813    3.2434   10.9475 H   0  0  0  0  0  0  0  0  0  0  0  0
    6.8148    2.5367    8.8985 H   0  0  0  0  0  0  0  0  0  0  0  0
    9.1646    5.2711    6.6186 H   0  0  0  0  0  0  0  0  0  0  0  0
   10.3155    5.9858    8.6432 H   0  0  0  0  0  0  0  0  0  0  0  0
    7.1795    3.3921    6.3869 C   0  0  0  0  0  0  0  0  0  0  0  0
    7.8145    3.9231    5.1942 N   0  0  0  0  0  0  0  0  0  0  0  0
    6.1504    3.7542    6.4391 H   0  0  0  0  0  0  0  0  0  0  0  0
    7.1146    2.2951    6.3785 H   0  0  0  0  0  0  0  0  0  0  0  0
    7.0393    4.0865    4.0279 C   0  0  0  0  0  0  0  0  0  0  0  0
    8.9801    3.1940    4.7468 C   0  0  0  0  0  0  0  0  0  0  0  0
    8.4492    2.1982    3.6851 C   0  0  0  0  0  0  0  0  0  0  0  0
    9.4691    2.6970    5.5817 H   0  0  0  0  0  0  0  0  0  0  0  0
    9.6813    3.9038    4.3048 H   0  0  0  0  0  0  0  0  0  0  0  0
    7.1548    2.7742    3.2457 N   0  0  0  0  0  0  0  0  0  0  0  0
    8.2776    1.2134    4.1183 H   0  0  0  0  0  0  0  0  0  0  0  0
    9.1310    2.1151    2.8421 H   0  0  0  0  0  0  0  0  0  0  0  0
    7.4902    4.8605    3.3934 H   0  0  0  0  0  0  0  0  0  0  0  0
    5.9909    4.2906    4.2437 H   0  0  0  0  0  0  0  0  0  0  0  0
    7.0019    2.9614    1.7922 C   0  0  0  0  0  0  0  0  0  0  0  0
    5.5513    3.2572    1.4136 C   0  0  0  0  0  0  0  0  0  0  0  0
    7.3280    2.0487    1.2878 H   0  0  0  0  0  0  0  0  0  0  0  0
    7.6558    3.7837    1.4874 H   0  0  0  0  0  0  0  0  0  0  0  0
    4.7141    1.9862    1.2483 C   0  0  0  0  0  0  0  0  0  0  0  0
    5.5473    3.8187    0.4786 H   0  0  0  0  0  0  0  0  0  0  0  0
    5.0926    3.8929    2.1711 H   0  0  0  0  0  0  0  0  0  0  0  0
    3.2399    2.3173    1.0499 C   0  0  0  0  0  0  0  0  0  0  0  0
    4.8009    1.3528    2.1323 H   0  0  0  0  0  0  0  0  0  0  0  0
    5.0813    1.4215    0.3885 H   0  0  0  0  0  0  0  0  0  0  0  0
    3.1035    2.9705    0.1907 H   0  0  0  0  0  0  0  0  0  0  0  0
    2.8467    2.8056    1.9385 H   0  0  0  0  0  0  0  0  0  0  0  0
    2.6725    1.4047    0.8931 H   0  0  0  0  0  0  0  0  0  0  0  0
    6.3760    2.1837    3.6103 H   0  0  0  0  0  0  0  0  0  0  0  0
  1  3  1  0  0  0  0
  1  4  1  0  0  0  0
  1  5  1  0  0  0  0
  2  6  1  0  0  0  0
  2  7  1  0  0  0  0
  2  8  1  0  0  0  0
  1  9  1  0  0  0  0
  2 10  1  0  0  0  0
  9 11  1  0  0  0  0
 10 11  1  0  0  0  0
  9 12  2  0  0  0  0
  9 13  2  0  0  0  0
 10 14  2  0  0  0  0
 10 15  2  0  0  0  0
 16 18  1  0  0  0  0
 16 19  1  0  0  0  0
 16 20  1  0  0  0  0
 17 21  1  0  0  0  0
 17 22  1  0  0  0  0
 17 23  1  0  0  0  0
 16 24  1  0  0  0  0
 17 25  1  0  0  0  0
 24 26  1  0  0  0  0
 25 26  1  0  0  0  0
 24 27  2  0  0  0  0
 24 28  2  0  0  0  0
 25 29  2  0  0  0  0
 25 30  2  0  0  0  0
 31 32  2  0  0  0  0
 31 33  1  0  0  0  0
 31 34  1  0  0  0  0
 32 35  1  0  0  0  0
 32 36  1  0  0  0  0
 35 37  4  0  0  0  0
 37 38  4  0  0  0  0
 38 39  4  0  0  0  0
 35 40  4  0  0  0  0
 39 41  4  0  0  0  0
 40 41  4  0  0  0  0
 40 42  1  0  0  0  0
 41 43  1  0  0  0  0
 38 44  1  0  0  0  0
 37 45  1  0  0  0  0
 39 46  1  0  0  0  0
 46 47  1  0  0  0  0
 46 48  1  0  0  0  0
 46 49  1  0  0  0  0
 47 50  1  0  0  0  0
 47 51  1  0  0  0  0
 51 52  1  0  0  0  0
 51 53  1  0  0  0  0
 51 54  1  0  0  0  0
 50 55  1  0  0  0  0
 52 55  1  0  0  0  0
 52 56  1  0  0  0  0
 52 57  1  0  0  0  0
 50 58  1  0  0  0  0
 50 59  1  0  0  0  0
 55 60  1  0  0  0  0
 60 61  1  0  0  0  0
 60 62  1  0  0  0  0
 60 63  1  0  0  0  0
 61 64  1  0  0  0  0
 61 65  1  0  0  0  0
 61 66  1  0  0  0  0
 64 67  1  0  0  0  0
 64 68  1  0  0  0  0
 64 69  1  0  0  0  0
 67 70  1  0  0  0  0
 67 71  1  0  0  0  0
 67 72  1  0  0  0  0
 55 73  1  0  0  0  0
 74 75  2  0  0  0  0
 74 76  1  0  0  0  0
 74 77  1  0  0  0  0
 75 78  1  0  0  0  0
 75 79  1  0  0  0  0
 78 80  4  0  0  0  0
 80 81  4  0  0  0  0
 81 82  4  0  0  0  0
 78 83  4  0  0  0  0
 82 84  4  0  0  0  0
 83 84  4  0  0  0  0
 83 85  1  0  0  0  0
 84 86  1  0  0  0  0
 81 87  1  0  0  0  0
 80 88  1  0  0  0  0
 82 89  1  0  0  0  0
 89 90  1  0  0  0  0
 89 91  1  0  0  0  0
 89 92  1  0  0  0  0
 90 93  1  0  0  0  0
 90 94  1  0  0  0  0
 94 95  1  0  0  0  0
 94 96  1  0  0  0  0
 94 97  1  0  0  0  0
 93 98  1  0  0  0  0
 95 98  1  0  0  0  0
 95 99  1  0  0  0  0
 95100  1  0  0  0  0
 93101  1  0  0  0  0
 93102  1  0  0  0  0
 98103  1  0  0  0  0
103104  1  0  0  0  0
103105  1  0  0  0  0
103106  1  0  0  0  0
104107  1  0  0  0  0
104108  1  0  0  0  0
104109  1  0  0  0  0
107110  1  0  0  0  0
107111  1  0  0  0  0
107112  1  0  0  0  0
110113  1  0  0  0  0
110114  1  0  0  0  0
110115  1  0  0  0  0
 98116  1  0  0  0  0
M  END
