 xtb: 6.7.1 (edcfbbe)
          10212513523D

116116  0     0  0            999 V2000
    1.8045    5.6102    4.4132 C   0  0  0  0  0  0  0  0  0  0  0  0
    5.3868    8.6334    4.7294 C   0  0  0  0  0  0  0  0  0  0  0  0
    2.5167    4.8683    3.5703 F   0  0  0  0  0  0  0  0  0  0  0  0
    1.9153    5.0480    5.6337 F   0  0  0  0  0  0  0  0  0  0  0  0
    0.5247    5.4900    4.0590 F   0  0  0  0  0  0  0  0  0  0  0  0
    4.5061    9.6266    4.8244 F   0  0  0  0  0  0  0  0  0  0  0  0
    5.6467    8.1894    5.9634 F   0  0  0  0  0  0  0  0  0  0  0  0
    6.5259    9.1593    4.2660 F   0  0  0  0  0  0  0  0  0  0  0  0
    2.3519    7.4354    4.5097 S   0  0  0  0  0  0  0  0  0  0  0  0
    4.7816    7.2439    3.5821 S   0  0  0  0  0  0  0  0  0  0  0  0
    3.2871    7.6373    3.2679 N   0  0  0  0  0  0  0  0  0  0  0  0
    1.1245    8.1501    4.4439 O   0  0  0  0  0  0  0  0  0  0  0  0
    3.0575    7.4705    5.7678 O   0  0  0  0  0  0  0  0  0  0  0  0
    4.9086    6.0525    4.3741 O   0  0  0  0  0  0  0  0  0  0  0  0
    5.6163    7.3318    2.4295 O   0  0  0  0  0  0  0  0  0  0  0  0
   10.0635    6.1274    8.3898 C   0  0  0  0  0  0  0  0  0  0  0  0
    9.6440    1.4808    9.1524 C   0  0  0  0  0  0  0  0  0  0  0  0
    9.6171    5.9976    9.6378 F   0  0  0  0  0  0  0  0  0  0  0  0
   11.2619    6.7001    8.4335 F   0  0  0  0  0  0  0  0  0  0  0  0
    9.2359    6.9781    7.7628 F   0  0  0  0  0  0  0  0  0  0  0  0
    8.7302    0.9815    8.3200 F   0  0  0  0  0  0  0  0  0  0  0  0
   10.0070    0.4915    9.9720 F   0  0  0  0  0  0  0  0  0  0  0  0
    9.0457    2.4095    9.9047 F   0  0  0  0  0  0  0  0  0  0  0  0
   10.1447    4.4660    7.5143 S   0  0  0  0  0  0  0  0  0  0  0  0
   11.1309    2.1892    8.2085 S   0  0  0  0  0  0  0  0  0  0  0  0
   11.0841    3.7284    8.5406 N   0  0  0  0  0  0  0  0  0  0  0  0
    8.8010    3.9794    7.4557 O   0  0  0  0  0  0  0  0  0  0  0  0
   10.7424    4.7762    6.2418 O   0  0  0  0  0  0  0  0  0  0  0  0
   10.7989    1.9530    6.8257 O   0  0  0  0  0  0  0  0  0  0  0  0
   12.2616    1.5146    8.7442 O   0  0  0  0  0  0  0  0  0  0  0  0
    4.2416    3.0229    1.3848 C   0  0  0  0  0  0  0  0  0  0  0  0
    5.1740    3.4977    2.2015 C   0  0  0  0  0  0  0  0  0  0  0  0
    3.4163    3.6373    1.0715 H   0  0  0  0  0  0  0  0  0  0  0  0
    4.2494    2.0098    1.0169 H   0  0  0  0  0  0  0  0  0  0  0  0
    6.3288    2.7553    2.6955 C   0  0  0  0  0  0  0  0  0  0  0  0
    5.0944    4.5119    2.5689 H   0  0  0  0  0  0  0  0  0  0  0  0
    6.8056    1.6002    2.0765 C   0  0  0  0  0  0  0  0  0  0  0  0
    7.9498    0.9763    2.5348 C   0  0  0  0  0  0  0  0  0  0  0  0
    8.6488    1.4715    3.6312 C   0  0  0  0  0  0  0  0  0  0  0  0
    7.0028    3.2216    3.8274 C   0  0  0  0  0  0  0  0  0  0  0  0
    8.1354    2.5827    4.3036 C   0  0  0  0  0  0  0  0  0  0  0  0
    6.6226    4.0932    4.3353 H   0  0  0  0  0  0  0  0  0  0  0  0
    8.5965    2.9160    5.2260 H   0  0  0  0  0  0  0  0  0  0  0  0
    8.3043    0.0850    2.0346 H   0  0  0  0  0  0  0  0  0  0  0  0
    6.2941    1.2017    1.2142 H   0  0  0  0  0  0  0  0  0  0  0  0
    9.9866    0.8911    4.0083 C   0  0  0  0  0  0  0  0  0  0  0  0
   11.1189    1.5925    3.3906 N   0  0  0  0  0  0  0  0  0  0  0  0
   10.0531   -0.1511    3.6862 H   0  0  0  0  0  0  0  0  0  0  0  0
   10.1417    0.9412    5.0862 H   0  0  0  0  0  0  0  0  0  0  0  0
   11.4506    2.8524    3.9439 C   0  0  0  0  0  0  0  0  0  0  0  0
   11.0144    1.8509    1.9698 C   0  0  0  0  0  0  0  0  0  0  0  0
   10.4611    3.2952    1.8408 C   0  0  0  0  0  0  0  0  0  0  0  0
   10.3753    1.1191    1.4824 H   0  0  0  0  0  0  0  0  0  0  0  0
   12.0144    1.7902    1.5309 H   0  0  0  0  0  0  0  0  0  0  0  0
   10.5730    3.8594    3.2054 N   0  0  0  0  0  0  0  0  0  0  0  0
    9.4236    3.3033    1.5096 H   0  0  0  0  0  0  0  0  0  0  0  0
   11.0637    3.8868    1.1526 H   0  0  0  0  0  0  0  0  0  0  0  0
   12.4878    3.1084    3.7023 H   0  0  0  0  0  0  0  0  0  0  0  0
   11.2896    2.9039    5.0210 H   0  0  0  0  0  0  0  0  0  0  0  0
   11.0363    5.2554    3.2873 C   0  0  0  0  0  0  0  0  0  0  0  0
   10.1068    6.2320    2.5643 C   0  0  0  0  0  0  0  0  0  0  0  0
   12.0393    5.3056    2.8543 H   0  0  0  0  0  0  0  0  0  0  0  0
   11.0972    5.4993    4.3493 H   0  0  0  0  0  0  0  0  0  0  0  0
    8.6394    6.1461    2.9894 C   0  0  0  0  0  0  0  0  0  0  0  0
   10.1697    6.0798    1.4841 H   0  0  0  0  0  0  0  0  0  0  0  0
   10.4760    7.2366    2.7733 H   0  0  0  0  0  0  0  0  0  0  0  0
    8.4169    6.4171    4.4728 C   0  0  0  0  0  0  0  0  0  0  0  0
    8.2240    5.1704    2.7278 H   0  0  0  0  0  0  0  0  0  0  0  0
    8.0681    6.8805    2.4195 H   0  0  0  0  0  0  0  0  0  0  0  0
    8.7694    7.4118    4.7321 H   0  0  0  0  0  0  0  0  0  0  0  0
    8.9225    5.6974    5.1116 H   0  0  0  0  0  0  0  0  0  0  0  0
    7.3523    6.3701    4.6846 H   0  0  0  0  0  0  0  0  0  0  0  0
    9.6491    3.8019    3.6704 H   0  0  0  0  0  0  0  0  0  0  0  0
    3.6767    1.2399    4.3903 C   0  0  0  0  0  0  0  0  0  0  0  0
    4.4982    1.0676    5.4185 C   0  0  0  0  0  0  0  0  0  0  0  0
    3.3763    0.4123    3.7708 H   0  0  0  0  0  0  0  0  0  0  0  0
    3.2771    2.2013    4.1200 H   0  0  0  0  0  0  0  0  0  0  0  0
    4.9702    2.1084    6.3229 C   0  0  0  0  0  0  0  0  0  0  0  0
    4.8621    0.0732    5.6476 H   0  0  0  0  0  0  0  0  0  0  0  0
    5.6145    1.7453    7.5074 C   0  0  0  0  0  0  0  0  0  0  0  0
    6.0721    2.7015    8.3926 C   0  0  0  0  0  0  0  0  0  0  0  0
    5.9478    4.0554    8.1059 C   0  0  0  0  0  0  0  0  0  0  0  0
    4.8159    3.4683    6.0546 C   0  0  0  0  0  0  0  0  0  0  0  0
    5.3058    4.4269    6.9243 C   0  0  0  0  0  0  0  0  0  0  0  0
    4.3510    3.8019    5.1428 H   0  0  0  0  0  0  0  0  0  0  0  0
    5.2495    5.4625    6.6172 H   0  0  0  0  0  0  0  0  0  0  0  0
    6.5611    2.3977    9.3049 H   0  0  0  0  0  0  0  0  0  0  0  0
    5.7599    0.6993    7.7338 H   0  0  0  0  0  0  0  0  0  0  0  0
    6.4826    5.0885    9.0623 C   0  0  0  0  0  0  0  0  0  0  0  0
    5.4667    5.8924    9.7500 N   0  0  0  0  0  0  0  0  0  0  0  0
    7.1392    5.7677    8.5227 H   0  0  0  0  0  0  0  0  0  0  0  0
    7.0835    4.5914    9.8286 H   0  0  0  0  0  0  0  0  0  0  0  0
    4.2500    5.2285   10.0290 C   0  0  0  0  0  0  0  0  0  0  0  0
    5.0935    7.1679    9.1519 C   0  0  0  0  0  0  0  0  0  0  0  0
    3.6401    7.0058    8.6525 C   0  0  0  0  0  0  0  0  0  0  0  0
    5.7725    7.4302    8.3436 H   0  0  0  0  0  0  0  0  0  0  0  0
    5.1497    7.9498    9.9146 H   0  0  0  0  0  0  0  0  0  0  0  0
    3.3427    5.5694    8.8572 N   0  0  0  0  0  0  0  0  0  0  0  0
    3.5147    7.2818    7.6052 H   0  0  0  0  0  0  0  0  0  0  0  0
    2.9508    7.5908    9.2629 H   0  0  0  0  0  0  0  0  0  0  0  0
    3.7687    5.6462   10.9217 H   0  0  0  0  0  0  0  0  0  0  0  0
    4.3848    4.1526   10.1336 H   0  0  0  0  0  0  0  0  0  0  0  0
    1.9119    5.2693    9.0201 C   0  0  0  0  0  0  0  0  0  0  0  0
    1.6312    3.7998    9.3267 C   0  0  0  0  0  0  0  0  0  0  0  0
    1.4111    5.5569    8.0936 H   0  0  0  0  0  0  0  0  0  0  0  0
    1.5294    5.8918    9.8344 H   0  0  0  0  0  0  0  0  0  0  0  0
    2.1140    2.8478    8.2339 C   0  0  0  0  0  0  0  0  0  0  0  0
    0.5498    3.6960    9.4328 H   0  0  0  0  0  0  0  0  0  0  0  0
    2.0766    3.5208   10.2838 H   0  0  0  0  0  0  0  0  0  0  0  0
    1.6561    1.4177    8.4940 C   0  0  0  0  0  0  0  0  0  0  0  0
    3.2025    2.8531    8.1801 H   0  0  0  0  0  0  0  0  0  0  0  0
    1.7290    3.1790    7.2699 H   0  0  0  0  0  0  0  0  0  0  0  0
    2.0455    1.0553    9.4428 H   0  0  0  0  0  0  0  0  0  0  0  0
    2.0174    0.7656    7.7039 H   0  0  0  0  0  0  0  0  0  0  0  0
    0.5708    1.3577    8.5220 H   0  0  0  0  0  0  0  0  0  0  0  0
    3.7238    5.0564    8.0344 H   0  0  0  0  0  0  0  0  0  0  0  0
  1  3  1  0  0  0  0
  1  4  1  0  0  0  0
  1  5  1  0  0  0  0
  2  6  1  0  0  0  0
  2  7  1  0  0  0  0
  2  8  1  0  0  0  0
  1  9  1  0  0  0  0
  2 10  1  0  0  0  0
  9 11  1  0  0  0  0
 10 11  1  0  0  0  0
  9 12  2  0  0  0  0
  9 13  2  0  0  0  0
 10 14  2  0  0  0  0
 10 15  2  0  0  0  0
 16 18  1  0  0  0  0
 16 19  1  0  0  0  0
 16 20  1  0  0  0  0
 17 21  1  0  0  0  0
 17 22  1  0  0  0  0
 17 23  1  0  0  0  0
 16 24  1  0  0  0  0
 17 25  1  0  0  0  0
 24 26  1  0  0  0  0
 25 26  1  0  0  0  0
 24 27  2  0  0  0  0
 24 28  2  0  0  0  0
 25 29  2  0  0  0  0
 25 30  2  0  0  0  0
 31 32  2  0  0  0  0
 31 33  1  0  0  0  0
 31 34  1  0  0  0  0
 32 35  1  0  0  0  0
 32 36  1  0  0  0  0
 35 37  4  0  0  0  0
 37 38  4  0  0  0  0
 38 39  4  0  0  0  0
 35 40  4  0  0  0  0
 39 41  4  0  0  0  0
 40 41  4  0  0  0  0
 40 42  1  0  0  0  0
 41 43  1  0  0  0  0
 38 44  1  0  0  0  0
 37 45  1  0  0  0  0
 39 46  1  0  0  0  0
 46 47  1  0  0  0  0
 46 48  1  0  0  0  0
 46 49  1  0  0  0  0
 47 50  1  0  0  0  0
 47 51  1  0  0  0  0
 51 52  1  0  0  0  0
 51 53  1  0  0  0  0
 51 54  1  0  0  0  0
 50 55  1  0  0  0  0
 52 55  1  0  0  0  0
 52 56  1  0  0  0  0
 52 57  1  0  0  0  0
 50 58  1  0  0  0  0
 50 59  1  0  0  0  0
 55 60  1  0  0  0  0
 60 61  1  0  0  0  0
 60 62  1  0  0  0  0
 60 63  1  0  0  0  0
 61 64  1  0  0  0  0
 61 65  1  0  0  0  0
 61 66  1  0  0  0  0
 64 67  1  0  0  0  0
 64 68  1  0  0  0  0
 64 69  1  0  0  0  0
 67 70  1  0  0  0  0
 67 71  1  0  0  0  0
 67 72  1  0  0  0  0
 55 73  1  0  0  0  0
 74 75  2  0  0  0  0
 74 76  1  0  0  0  0
 74 77  1  0  0  0  0
 75 78  1  0  0  0  0
 75 79  1  0  0  0  0
 78 80  4  0  0  0  0
 80 81  4  0  0  0  0
 81 82  4  0  0  0  0
 78 83  4  0  0  0  0
 82 84  4  0  0  0  0
 83 84  4  0  0  0  0
 83 85  1  0  0  0  0
 84 86  1  0  0  0  0
 81 87  1  0  0  0  0
 80 88  1  0  0  0  0
 82 89  1  0  0  0  0
 89 90  1  0  0  0  0
 89 91  1  0  0  0  0
 89 92  1  0  0  0  0
 90 93  1  0  0  0  0
 90 94  1  0  0  0  0
 94 95  1  0  0  0  0
 94 96  1  0  0  0  0
 94 97  1  0  0  0  0
 93 98  1  0  0  0  0
 95 98  1  0  0  0  0
 95 99  1  0  0  0  0
 95100  1  0  0  0  0
 93101  1  0  0  0  0
 93102  1  0  0  0  0
 98103  1  0  0  0  0
103104  1  0  0  0  0
103105  1  0  0  0  0
103106  1  0  0  0  0
104107  1  0  0  0  0
104108  1  0  0  0  0
104109  1  0  0  0  0
107110  1  0  0  0  0
107111  1  0  0  0  0
107112  1  0  0  0  0
110113  1  0  0  0  0
110114  1  0  0  0  0
110115  1  0  0  0  0
 98116  1  0  0  0  0
M  END
