 xtb: 6.7.1 (edcfbbe)
          10212513513D

116116  0     0  0            999 V2000
    4.7008    8.0949    9.2588 C   0  0  0  0  0  0  0  0  0  0  0  0
    1.7981   10.7375    6.9311 C   0  0  0  0  0  0  0  0  0  0  0  0
    5.6598    7.1543    9.2643 F   0  0  0  0  0  0  0  0  0  0  0  0
    5.2400    9.2061    9.7238 F   0  0  0  0  0  0  0  0  0  0  0  0
    3.7638    7.6636   10.1048 F   0  0  0  0  0  0  0  0  0  0  0  0
    2.6974   11.6978    7.0707 F   0  0  0  0  0  0  0  0  0  0  0  0
    1.9753   10.1608    5.7329 F   0  0  0  0  0  0  0  0  0  0  0  0
    0.5960   11.3319    6.8755 F   0  0  0  0  0  0  0  0  0  0  0  0
    3.9965    8.2724    7.5127 S   0  0  0  0  0  0  0  0  0  0  0  0
    1.8098    9.4561    8.3393 S   0  0  0  0  0  0  0  0  0  0  0  0
    2.4329    8.1561    7.6801 N   0  0  0  0  0  0  0  0  0  0  0  0
    4.4248    9.5337    6.9983 O   0  0  0  0  0  0  0  0  0  0  0  0
    4.4738    7.1075    6.8100 O   0  0  0  0  0  0  0  0  0  0  0  0
    0.4227    9.2474    8.6123 O   0  0  0  0  0  0  0  0  0  0  0  0
    2.6426   10.0143    9.3531 O   0  0  0  0  0  0  0  0  0  0  0  0
    8.5450    8.2370    7.5887 C   0  0  0  0  0  0  0  0  0  0  0  0
   12.7999    8.6994    6.3119 C   0  0  0  0  0  0  0  0  0  0  0  0
    8.6361    8.7315    8.8154 F   0  0  0  0  0  0  0  0  0  0  0  0
    9.0596    9.1334    6.7446 F   0  0  0  0  0  0  0  0  0  0  0  0
    7.2625    8.0769    7.2804 F   0  0  0  0  0  0  0  0  0  0  0  0
   12.1412    9.7846    6.7059 F   0  0  0  0  0  0  0  0  0  0  0  0
   13.6972    8.3920    7.2413 F   0  0  0  0  0  0  0  0  0  0  0  0
   13.4626    9.0044    5.1898 F   0  0  0  0  0  0  0  0  0  0  0  0
    9.4978    6.6188    7.4832 S   0  0  0  0  0  0  0  0  0  0  0  0
   11.6335    7.2691    6.0022 S   0  0  0  0  0  0  0  0  0  0  0  0
   10.9909    7.1015    7.4228 N   0  0  0  0  0  0  0  0  0  0  0  0
    9.1914    5.9241    8.6843 O   0  0  0  0  0  0  0  0  0  0  0  0
    9.0770    5.9895    6.2456 O   0  0  0  0  0  0  0  0  0  0  0  0
   12.4877    6.1814    5.6106 O   0  0  0  0  0  0  0  0  0  0  0  0
   10.7340    7.6997    4.9631 O   0  0  0  0  0  0  0  0  0  0  0  0
    8.5255    2.8827    9.9957 C   0  0  0  0  0  0  0  0  0  0  0  0
    8.7210    1.9512    9.0705 C   0  0  0  0  0  0  0  0  0  0  0  0
    8.0079    2.6582   10.9132 H   0  0  0  0  0  0  0  0  0  0  0  0
    8.8540    3.9000    9.8646 H   0  0  0  0  0  0  0  0  0  0  0  0
    9.3987    2.1695    7.7964 C   0  0  0  0  0  0  0  0  0  0  0  0
    8.3387    0.9476    9.2236 H   0  0  0  0  0  0  0  0  0  0  0  0
    9.1702    1.2951    6.7324 C   0  0  0  0  0  0  0  0  0  0  0  0
    9.7805    1.4911    5.5091 C   0  0  0  0  0  0  0  0  0  0  0  0
   10.6502    2.5596    5.3138 C   0  0  0  0  0  0  0  0  0  0  0  0
   10.2873    3.2267    7.6008 C   0  0  0  0  0  0  0  0  0  0  0  0
   10.9018    3.4178    6.3796 C   0  0  0  0  0  0  0  0  0  0  0  0
   10.5112    3.8974    8.4127 H   0  0  0  0  0  0  0  0  0  0  0  0
   11.5999    4.2324    6.2621 H   0  0  0  0  0  0  0  0  0  0  0  0
    9.6026    0.7874    4.7056 H   0  0  0  0  0  0  0  0  0  0  0  0
    8.5084    0.4500    6.8714 H   0  0  0  0  0  0  0  0  0  0  0  0
   11.3449    2.7553    3.9903 C   0  0  0  0  0  0  0  0  0  0  0  0
   10.7054    3.6549    3.0305 N   0  0  0  0  0  0  0  0  0  0  0  0
   11.4350    1.7918    3.4777 H   0  0  0  0  0  0  0  0  0  0  0  0
   12.3494    3.1456    4.1586 H   0  0  0  0  0  0  0  0  0  0  0  0
   10.8256    5.0668    3.2549 C   0  0  0  0  0  0  0  0  0  0  0  0
    9.3043    3.4154    2.7642 C   0  0  0  0  0  0  0  0  0  0  0  0
    8.5701    4.4359    3.6383 C   0  0  0  0  0  0  0  0  0  0  0  0
    9.0250    2.3913    2.9974 H   0  0  0  0  0  0  0  0  0  0  0  0
    9.1056    3.6040    1.7024 H   0  0  0  0  0  0  0  0  0  0  0  0
    9.4501    5.6190    3.5862 N   0  0  0  0  0  0  0  0  0  0  0  0
    8.5173    4.1001    4.6750 H   0  0  0  0  0  0  0  0  0  0  0  0
    7.5705    4.6704    3.2864 H   0  0  0  0  0  0  0  0  0  0  0  0
   11.1512    5.5543    2.3288 H   0  0  0  0  0  0  0  0  0  0  0  0
   11.5369    5.3090    4.0457 H   0  0  0  0  0  0  0  0  0  0  0  0
    9.0664    6.6630    2.6102 C   0  0  0  0  0  0  0  0  0  0  0  0
    7.6511    7.2129    2.7552 C   0  0  0  0  0  0  0  0  0  0  0  0
    9.1921    6.2453    1.6060 H   0  0  0  0  0  0  0  0  0  0  0  0
    9.7741    7.4807    2.7608 H   0  0  0  0  0  0  0  0  0  0  0  0
    7.3538    7.8030    4.1328 C   0  0  0  0  0  0  0  0  0  0  0  0
    6.9065    6.4506    2.5111 H   0  0  0  0  0  0  0  0  0  0  0  0
    7.5521    8.0029    2.0062 H   0  0  0  0  0  0  0  0  0  0  0  0
    6.0395    8.5755    4.1180 C   0  0  0  0  0  0  0  0  0  0  0  0
    8.1704    8.4676    4.4151 H   0  0  0  0  0  0  0  0  0  0  0  0
    7.3002    7.0072    4.8761 H   0  0  0  0  0  0  0  0  0  0  0  0
    5.7762    8.9134    5.1159 H   0  0  0  0  0  0  0  0  0  0  0  0
    5.2299    7.9423    3.7610 H   0  0  0  0  0  0  0  0  0  0  0  0
    6.1113    9.4432    3.4660 H   0  0  0  0  0  0  0  0  0  0  0  0
    9.4654    6.0623    4.5319 H   0  0  0  0  0  0  0  0  0  0  0  0
    6.4883    4.7474    7.4069 C   0  0  0  0  0  0  0  0  0  0  0  0
    6.4591    3.7082    6.5786 C   0  0  0  0  0  0  0  0  0  0  0  0
    7.0230    4.6954    8.3376 H   0  0  0  0  0  0  0  0  0  0  0  0
    5.9803    5.6735    7.2037 H   0  0  0  0  0  0  0  0  0  0  0  0
    5.8018    3.6741    5.2827 C   0  0  0  0  0  0  0  0  0  0  0  0
    6.9728    2.7938    6.8456 H   0  0  0  0  0  0  0  0  0  0  0  0
    5.8542    2.4986    4.5268 C   0  0  0  0  0  0  0  0  0  0  0  0
    5.2659    2.4184    3.2804 C   0  0  0  0  0  0  0  0  0  0  0  0
    4.6129    3.5174    2.7330 C   0  0  0  0  0  0  0  0  0  0  0  0
    5.1490    4.7827    4.7300 C   0  0  0  0  0  0  0  0  0  0  0  0
    4.5768    4.7005    3.4735 C   0  0  0  0  0  0  0  0  0  0  0  0
    5.0890    5.7036    5.2889 H   0  0  0  0  0  0  0  0  0  0  0  0
    4.1364    5.5909    3.0392 H   0  0  0  0  0  0  0  0  0  0  0  0
    5.3282    1.4982    2.7159 H   0  0  0  0  0  0  0  0  0  0  0  0
    6.3697    1.6389    4.9282 H   0  0  0  0  0  0  0  0  0  0  0  0
    3.9234    3.4032    1.3982 C   0  0  0  0  0  0  0  0  0  0  0  0
    2.4816    3.1416    1.4733 N   0  0  0  0  0  0  0  0  0  0  0  0
    4.3531    2.5763    0.8280 H   0  0  0  0  0  0  0  0  0  0  0  0
    4.0492    4.3160    0.8123 H   0  0  0  0  0  0  0  0  0  0  0  0
    1.6517    4.2181    1.8546 C   0  0  0  0  0  0  0  0  0  0  0  0
    2.0756    2.0649    2.3537 C   0  0  0  0  0  0  0  0  0  0  0  0
    1.7412    2.7363    3.7113 C   0  0  0  0  0  0  0  0  0  0  0  0
    2.8603    1.3189    2.4457 H   0  0  0  0  0  0  0  0  0  0  0  0
    1.1850    1.5906    1.9333 H   0  0  0  0  0  0  0  0  0  0  0  0
    1.5505    4.1694    3.3777 N   0  0  0  0  0  0  0  0  0  0  0  0
    2.5599    2.6242    4.4209 H   0  0  0  0  0  0  0  0  0  0  0  0
    0.8308    2.3283    4.1468 H   0  0  0  0  0  0  0  0  0  0  0  0
    0.6358    4.0584    1.4748 H   0  0  0  0  0  0  0  0  0  0  0  0
    2.0228    5.1862    1.5201 H   0  0  0  0  0  0  0  0  0  0  0  0
    0.3264    4.8050    3.9090 C   0  0  0  0  0  0  0  0  0  0  0  0
    0.4937    5.1748    5.3810 C   0  0  0  0  0  0  0  0  0  0  0  0
   -0.5164    4.1276    3.7544 H   0  0  0  0  0  0  0  0  0  0  0  0
    0.1484    5.7153    3.3342 H   0  0  0  0  0  0  0  0  0  0  0  0
    1.7565    6.0030    5.6326 C   0  0  0  0  0  0  0  0  0  0  0  0
    0.5175    4.2758    5.9986 H   0  0  0  0  0  0  0  0  0  0  0  0
   -0.3797    5.7552    5.6765 H   0  0  0  0  0  0  0  0  0  0  0  0
    1.9133    7.1961    4.6961 C   0  0  0  0  0  0  0  0  0  0  0  0
    2.6532    5.3788    5.6009 H   0  0  0  0  0  0  0  0  0  0  0  0
    1.7207    6.4129    6.6422 H   0  0  0  0  0  0  0  0  0  0  0  0
    1.0333    7.8303    4.7419 H   0  0  0  0  0  0  0  0  0  0  0  0
    2.0934    6.9224    3.6549 H   0  0  0  0  0  0  0  0  0  0  0  0
    2.7551    7.7858    5.0445 H   0  0  0  0  0  0  0  0  0  0  0  0
    2.3509    4.6963    3.7692 H   0  0  0  0  0  0  0  0  0  0  0  0
  1  3  1  0  0  0  0
  1  4  1  0  0  0  0
  1  5  1  0  0  0  0
  2  6  1  0  0  0  0
  2  7  1  0  0  0  0
  2  8  1  0  0  0  0
  1  9  1  0  0  0  0
  2 10  1  0  0  0  0
  9 11  1  0  0  0  0
 10 11  1  0  0  0  0
  9 12  2  0  0  0  0
  9 13  2  0  0  0  0
 10 14  2  0  0  0  0
 10 15  2  0  0  0  0
 16 18  1  0  0  0  0
 16 19  1  0  0  0  0
 16 20  1  0  0  0  0
 17 21  1  0  0  0  0
 17 22  1  0  0  0  0
 17 23  1  0  0  0  0
 16 24  1  0  0  0  0
 17 25  1  0  0  0  0
 24 26  1  0  0  0  0
 25 26  1  0  0  0  0
 24 27  2  0  0  0  0
 24 28  2  0  0  0  0
 25 29  2  0  0  0  0
 25 30  2  0  0  0  0
 31 32  2  0  0  0  0
 31 33  1  0  0  0  0
 31 34  1  0  0  0  0
 32 35  1  0  0  0  0
 32 36  1  0  0  0  0
 35 37  4  0  0  0  0
 37 38  4  0  0  0  0
 38 39  4  0  0  0  0
 35 40  4  0  0  0  0
 39 41  4  0  0  0  0
 40 41  4  0  0  0  0
 40 42  1  0  0  0  0
 41 43  1  0  0  0  0
 38 44  1  0  0  0  0
 37 45  1  0  0  0  0
 39 46  1  0  0  0  0
 46 47  1  0  0  0  0
 46 48  1  0  0  0  0
 46 49  1  0  0  0  0
 47 50  1  0  0  0  0
 47 51  1  0  0  0  0
 51 52  1  0  0  0  0
 51 53  1  0  0  0  0
 51 54  1  0  0  0  0
 50 55  1  0  0  0  0
 52 55  1  0  0  0  0
 52 56  1  0  0  0  0
 52 57  1  0  0  0  0
 50 58  1  0  0  0  0
 50 59  1  0  0  0  0
 55 60  1  0  0  0  0
 60 61  1  0  0  0  0
 60 62  1  0  0  0  0
 60 63  1  0  0  0  0
 61 64  1  0  0  0  0
 61 65  1  0  0  0  0
 61 66  1  0  0  0  0
 64 67  1  0  0  0  0
 64 68  1  0  0  0  0
 64 69  1  0  0  0  0
 67 70  1  0  0  0  0
 67 71  1  0  0  0  0
 67 72  1  0  0  0  0
 55 73  1  0  0  0  0
 74 75  2  0  0  0  0
 74 76  1  0  0  0  0
 74 77  1  0  0  0  0
 75 78  1  0  0  0  0
 75 79  1  0  0  0  0
 78 80  4  0  0  0  0
 80 81  4  0  0  0  0
 81 82  4  0  0  0  0
 78 83  4  0  0  0  0
 82 84  4  0  0  0  0
 83 84  4  0  0  0  0
 83 85  1  0  0  0  0
 84 86  1  0  0  0  0
 81 87  1  0  0  0  0
 80 88  1  0  0  0  0
 82 89  1  0  0  0  0
 89 90  1  0  0  0  0
 89 91  1  0  0  0  0
 89 92  1  0  0  0  0
 90 93  1  0  0  0  0
 90 94  1  0  0  0  0
 94 95  1  0  0  0  0
 94 96  1  0  0  0  0
 94 97  1  0  0  0  0
 93 98  1  0  0  0  0
 95 98  1  0  0  0  0
 95 99  1  0  0  0  0
 95100  1  0  0  0  0
 93101  1  0  0  0  0
 93102  1  0  0  0  0
 98103  1  0  0  0  0
103104  1  0  0  0  0
103105  1  0  0  0  0
103106  1  0  0  0  0
104107  1  0  0  0  0
104108  1  0  0  0  0
104109  1  0  0  0  0
107110  1  0  0  0  0
107111  1  0  0  0  0
107112  1  0  0  0  0
110113  1  0  0  0  0
110114  1  0  0  0  0
110115  1  0  0  0  0
 98116  1  0  0  0  0
M  END
