 xtb: 6.7.1 (edcfbbe)
          10212513483D

116116  0     0  0            999 V2000
    7.7730   10.8888    8.1645 C   0  0  0  0  0  0  0  0  0  0  0  0
    3.5463   10.9542    7.2050 C   0  0  0  0  0  0  0  0  0  0  0  0
    6.8748    9.8985    8.2130 F   0  0  0  0  0  0  0  0  0  0  0  0
    8.9518   10.2898    7.8876 F   0  0  0  0  0  0  0  0  0  0  0  0
    7.8912   11.4473    9.3491 F   0  0  0  0  0  0  0  0  0  0  0  0
    3.0567   11.0041    5.9608 F   0  0  0  0  0  0  0  0  0  0  0  0
    4.0673    9.7289    7.3561 F   0  0  0  0  0  0  0  0  0  0  0  0
    2.5157   11.0495    8.0433 F   0  0  0  0  0  0  0  0  0  0  0  0
    7.3633   12.0556    6.7203 S   0  0  0  0  0  0  0  0  0  0  0  0
    4.8429   12.3139    7.4418 S   0  0  0  0  0  0  0  0  0  0  0  0
    5.8728   11.7547    6.3581 N   0  0  0  0  0  0  0  0  0  0  0  0
    7.6912   13.3717    7.1324 O   0  0  0  0  0  0  0  0  0  0  0  0
    8.1891   11.4774    5.6672 O   0  0  0  0  0  0  0  0  0  0  0  0
    5.3585   12.1589    8.7606 O   0  0  0  0  0  0  0  0  0  0  0  0
    4.1556   13.5026    7.0782 O   0  0  0  0  0  0  0  0  0  0  0  0
    3.7929    1.4571   10.4207 C   0  0  0  0  0  0  0  0  0  0  0  0
    6.0630    4.3973    7.5033 C   0  0  0  0  0  0  0  0  0  0  0  0
    3.9885    0.2651   10.9821 F   0  0  0  0  0  0  0  0  0  0  0  0
    4.4644    2.3606   11.1291 F   0  0  0  0  0  0  0  0  0  0  0  0
    2.4906    1.7447   10.5289 F   0  0  0  0  0  0  0  0  0  0  0  0
    6.0269    4.8661    8.7488 F   0  0  0  0  0  0  0  0  0  0  0  0
    7.1021    3.5879    7.3810 F   0  0  0  0  0  0  0  0  0  0  0  0
    6.2951    5.4493    6.6907 F   0  0  0  0  0  0  0  0  0  0  0  0
    4.2728    1.5141    8.6052 S   0  0  0  0  0  0  0  0  0  0  0  0
    4.3919    3.6396    7.0576 S   0  0  0  0  0  0  0  0  0  0  0  0
    3.8071    3.0266    8.3648 N   0  0  0  0  0  0  0  0  0  0  0  0
    5.6862    1.3679    8.5214 O   0  0  0  0  0  0  0  0  0  0  0  0
    3.4247    0.5547    7.9784 O   0  0  0  0  0  0  0  0  0  0  0  0
    4.6405    2.7360    5.9818 O   0  0  0  0  0  0  0  0  0  0  0  0
    3.6253    4.8234    6.7265 O   0  0  0  0  0  0  0  0  0  0  0  0
    7.3361    2.4279    4.4694 C   0  0  0  0  0  0  0  0  0  0  0  0
    7.0991    3.2429    3.4481 C   0  0  0  0  0  0  0  0  0  0  0  0
    6.6831    1.6032    4.6900 H   0  0  0  0  0  0  0  0  0  0  0  0
    8.1577    2.5678    5.1508 H   0  0  0  0  0  0  0  0  0  0  0  0
    7.8854    4.4127    3.0770 C   0  0  0  0  0  0  0  0  0  0  0  0
    6.2390    3.0602    2.8154 H   0  0  0  0  0  0  0  0  0  0  0  0
    9.1606    4.6637    3.5874 C   0  0  0  0  0  0  0  0  0  0  0  0
    9.8737    5.7805    3.2003 C   0  0  0  0  0  0  0  0  0  0  0  0
    9.3418    6.6942    2.2943 C   0  0  0  0  0  0  0  0  0  0  0  0
    7.3665    5.3165    2.1478 C   0  0  0  0  0  0  0  0  0  0  0  0
    8.0826    6.4346    1.7639 C   0  0  0  0  0  0  0  0  0  0  0  0
    6.3900    5.1348    1.7212 H   0  0  0  0  0  0  0  0  0  0  0  0
    7.6716    7.1013    1.0168 H   0  0  0  0  0  0  0  0  0  0  0  0
   10.8697    5.9365    3.5915 H   0  0  0  0  0  0  0  0  0  0  0  0
    9.6054    3.9657    4.2786 H   0  0  0  0  0  0  0  0  0  0  0  0
   10.0999    7.9377    1.9027 C   0  0  0  0  0  0  0  0  0  0  0  0
    9.9488    9.0979    2.7799 N   0  0  0  0  0  0  0  0  0  0  0  0
    9.7830    8.2621    0.9075 H   0  0  0  0  0  0  0  0  0  0  0  0
   11.1699    7.7256    1.8576 H   0  0  0  0  0  0  0  0  0  0  0  0
    8.6281    9.5887    3.0050 C   0  0  0  0  0  0  0  0  0  0  0  0
   10.5322    9.0204    4.1028 C   0  0  0  0  0  0  0  0  0  0  0  0
    9.3917    8.5157    4.9962 C   0  0  0  0  0  0  0  0  0  0  0  0
   10.8196   10.0297    4.4116 H   0  0  0  0  0  0  0  0  0  0  0  0
   11.4076    8.3763    4.1183 H   0  0  0  0  0  0  0  0  0  0  0  0
    8.2017    9.1727    4.4078 N   0  0  0  0  0  0  0  0  0  0  0  0
    9.5145    8.8024    6.0372 H   0  0  0  0  0  0  0  0  0  0  0  0
    9.2832    7.4324    4.9117 H   0  0  0  0  0  0  0  0  0  0  0  0
    7.9259    9.2146    2.2623 H   0  0  0  0  0  0  0  0  0  0  0  0
    8.6356   10.6839    3.0028 H   0  0  0  0  0  0  0  0  0  0  0  0
    6.9629    8.3740    4.5091 C   0  0  0  0  0  0  0  0  0  0  0  0
    5.7008    9.2321    4.4822 C   0  0  0  0  0  0  0  0  0  0  0  0
    6.9884    7.8522    5.4681 H   0  0  0  0  0  0  0  0  0  0  0  0
    6.9627    7.6203    3.7172 H   0  0  0  0  0  0  0  0  0  0  0  0
    5.2655    9.7903    3.1265 C   0  0  0  0  0  0  0  0  0  0  0  0
    5.8265   10.0686    5.1728 H   0  0  0  0  0  0  0  0  0  0  0  0
    4.8910    8.6126    4.8648 H   0  0  0  0  0  0  0  0  0  0  0  0
    4.8525    8.7119    2.1299 C   0  0  0  0  0  0  0  0  0  0  0  0
    6.0488   10.4197    2.7038 H   0  0  0  0  0  0  0  0  0  0  0  0
    4.4088   10.4389    3.3141 H   0  0  0  0  0  0  0  0  0  0  0  0
    4.0449    8.1086    2.5370 H   0  0  0  0  0  0  0  0  0  0  0  0
    5.6764    8.0455    1.8890 H   0  0  0  0  0  0  0  0  0  0  0  0
    4.5065    9.1680    1.2058 H   0  0  0  0  0  0  0  0  0  0  0  0
    8.0572   10.0774    4.9387 H   0  0  0  0  0  0  0  0  0  0  0  0
    3.6931    2.1672    2.8023 C   0  0  0  0  0  0  0  0  0  0  0  0
    3.0379    3.1605    2.2152 C   0  0  0  0  0  0  0  0  0  0  0  0
    3.8506    1.2266    2.3009 H   0  0  0  0  0  0  0  0  0  0  0  0
    4.0675    2.2458    3.8106 H   0  0  0  0  0  0  0  0  0  0  0  0
    2.7771    4.4446    2.8630 C   0  0  0  0  0  0  0  0  0  0  0  0
    2.6185    3.0387    1.2232 H   0  0  0  0  0  0  0  0  0  0  0  0
    1.5915    5.1342    2.6070 C   0  0  0  0  0  0  0  0  0  0  0  0
    1.2845    6.2935    3.2943 C   0  0  0  0  0  0  0  0  0  0  0  0
    2.1602    6.8084    4.2474 C   0  0  0  0  0  0  0  0  0  0  0  0
    3.6892    5.0076    3.7531 C   0  0  0  0  0  0  0  0  0  0  0  0
    3.3865    6.1755    4.4250 C   0  0  0  0  0  0  0  0  0  0  0  0
    4.6325    4.5219    3.9380 H   0  0  0  0  0  0  0  0  0  0  0  0
    4.1063    6.5820    5.1166 H   0  0  0  0  0  0  0  0  0  0  0  0
    0.3576    6.8078    3.0783 H   0  0  0  0  0  0  0  0  0  0  0  0
    0.8941    4.7423    1.8794 H   0  0  0  0  0  0  0  0  0  0  0  0
    1.7933    8.0013    5.0956 C   0  0  0  0  0  0  0  0  0  0  0  0
    0.9599    7.7080    6.2620 N   0  0  0  0  0  0  0  0  0  0  0  0
    1.2490    8.7441    4.5079 H   0  0  0  0  0  0  0  0  0  0  0  0
    2.6983    8.4743    5.4762 H   0  0  0  0  0  0  0  0  0  0  0  0
    1.4832    6.8320    7.2441 C   0  0  0  0  0  0  0  0  0  0  0  0
   -0.3611    7.1853    6.0003 C   0  0  0  0  0  0  0  0  0  0  0  0
   -0.2188    5.6455    6.0758 C   0  0  0  0  0  0  0  0  0  0  0  0
   -0.7387    7.5262    5.0398 H   0  0  0  0  0  0  0  0  0  0  0  0
   -1.0363    7.5408    6.7841 H   0  0  0  0  0  0  0  0  0  0  0  0
    1.0321    5.4266    6.8368 N   0  0  0  0  0  0  0  0  0  0  0  0
   -0.1398    5.2064    5.0826 H   0  0  0  0  0  0  0  0  0  0  0  0
   -1.0576    5.1971    6.6045 H   0  0  0  0  0  0  0  0  0  0  0  0
    1.0223    7.0439    8.2147 H   0  0  0  0  0  0  0  0  0  0  0  0
    2.5682    6.8542    7.3233 H   0  0  0  0  0  0  0  0  0  0  0  0
    0.9270    4.4617    7.9520 C   0  0  0  0  0  0  0  0  0  0  0  0
    0.4257    3.0885    7.4993 C   0  0  0  0  0  0  0  0  0  0  0  0
    0.2594    4.8798    8.7100 H   0  0  0  0  0  0  0  0  0  0  0  0
    1.9301    4.3411    8.3680 H   0  0  0  0  0  0  0  0  0  0  0  0
    1.1285    2.5503    6.2510 C   0  0  0  0  0  0  0  0  0  0  0  0
   -0.6541    3.1019    7.3277 H   0  0  0  0  0  0  0  0  0  0  0  0
    0.6196    2.3987    8.3214 H   0  0  0  0  0  0  0  0  0  0  0  0
    0.8255    1.0696    6.0494 C   0  0  0  0  0  0  0  0  0  0  0  0
    2.2064    2.6679    6.3609 H   0  0  0  0  0  0  0  0  0  0  0  0
    0.8101    3.1038    5.3622 H   0  0  0  0  0  0  0  0  0  0  0  0
   -0.2477    0.8867    6.0597 H   0  0  0  0  0  0  0  0  0  0  0  0
    1.2995    0.4903    6.8362 H   0  0  0  0  0  0  0  0  0  0  0  0
    1.2271    0.7346    5.0973 H   0  0  0  0  0  0  0  0  0  0  0  0
    1.8105    5.0711    6.2539 H   0  0  0  0  0  0  0  0  0  0  0  0
  1  3  1  0  0  0  0
  1  4  1  0  0  0  0
  1  5  1  0  0  0  0
  2  6  1  0  0  0  0
  2  7  1  0  0  0  0
  2  8  1  0  0  0  0
  1  9  1  0  0  0  0
  2 10  1  0  0  0  0
  9 11  1  0  0  0  0
 10 11  1  0  0  0  0
  9 12  2  0  0  0  0
  9 13  2  0  0  0  0
 10 14  2  0  0  0  0
 10 15  2  0  0  0  0
 16 18  1  0  0  0  0
 16 19  1  0  0  0  0
 16 20  1  0  0  0  0
 17 21  1  0  0  0  0
 17 22  1  0  0  0  0
 17 23  1  0  0  0  0
 16 24  1  0  0  0  0
 17 25  1  0  0  0  0
 24 26  1  0  0  0  0
 25 26  1  0  0  0  0
 24 27  2  0  0  0  0
 24 28  2  0  0  0  0
 25 29  2  0  0  0  0
 25 30  2  0  0  0  0
 31 32  2  0  0  0  0
 31 33  1  0  0  0  0
 31 34  1  0  0  0  0
 32 35  1  0  0  0  0
 32 36  1  0  0  0  0
 35 37  4  0  0  0  0
 37 38  4  0  0  0  0
 38 39  4  0  0  0  0
 35 40  4  0  0  0  0
 39 41  4  0  0  0  0
 40 41  4  0  0  0  0
 40 42  1  0  0  0  0
 41 43  1  0  0  0  0
 38 44  1  0  0  0  0
 37 45  1  0  0  0  0
 39 46  1  0  0  0  0
 46 47  1  0  0  0  0
 46 48  1  0  0  0  0
 46 49  1  0  0  0  0
 47 50  1  0  0  0  0
 47 51  1  0  0  0  0
 51 52  1  0  0  0  0
 51 53  1  0  0  0  0
 51 54  1  0  0  0  0
 50 55  1  0  0  0  0
 52 55  1  0  0  0  0
 52 56  1  0  0  0  0
 52 57  1  0  0  0  0
 50 58  1  0  0  0  0
 50 59  1  0  0  0  0
 55 60  1  0  0  0  0
 60 61  1  0  0  0  0
 60 62  1  0  0  0  0
 60 63  1  0  0  0  0
 61 64  1  0  0  0  0
 61 65  1  0  0  0  0
 61 66  1  0  0  0  0
 64 67  1  0  0  0  0
 64 68  1  0  0  0  0
 64 69  1  0  0  0  0
 67 70  1  0  0  0  0
 67 71  1  0  0  0  0
 67 72  1  0  0  0  0
 55 73  1  0  0  0  0
 74 75  2  0  0  0  0
 74 76  1  0  0  0  0
 74 77  1  0  0  0  0
 75 78  1  0  0  0  0
 75 79  1  0  0  0  0
 78 80  4  0  0  0  0
 80 81  4  0  0  0  0
 81 82  4  0  0  0  0
 78 83  4  0  0  0  0
 82 84  4  0  0  0  0
 83 84  4  0  0  0  0
 83 85  1  0  0  0  0
 84 86  1  0  0  0  0
 81 87  1  0  0  0  0
 80 88  1  0  0  0  0
 82 89  1  0  0  0  0
 89 90  1  0  0  0  0
 89 91  1  0  0  0  0
 89 92  1  0  0  0  0
 90 93  1  0  0  0  0
 90 94  1  0  0  0  0
 94 95  1  0  0  0  0
 94 96  1  0  0  0  0
 94 97  1  0  0  0  0
 93 98  1  0  0  0  0
 95 98  1  0  0  0  0
 95 99  1  0  0  0  0
 95100  1  0  0  0  0
 93101  1  0  0  0  0
 93102  1  0  0  0  0
 98103  1  0  0  0  0
103104  1  0  0  0  0
103105  1  0  0  0  0
103106  1  0  0  0  0
104107  1  0  0  0  0
104108  1  0  0  0  0
104109  1  0  0  0  0
107110  1  0  0  0  0
107111  1  0  0  0  0
107112  1  0  0  0  0
110113  1  0  0  0  0
110114  1  0  0  0  0
110115  1  0  0  0  0
 98116  1  0  0  0  0
M  END
